data_ahq
_audit_creation_date              2019-12-31
_audit_creation_method            'Pymatgen'
_symmetry_space_group_name_H-M    'P1'
_symmetry_Int_Tables_number       1
loop_
_symmetry_equiv_pos_as_xyz
  x,y,z
_cell_length_a                    40.0
_cell_length_b                    40.0
_cell_length_c                    48.9898
_cell_angle_alpha                 90.0
_cell_angle_beta                 90.0
_cell_angle_gamma                 120.0
loop_
_atom_site_label
_atom_site_type_symbol
_atom_site_fract_x
_atom_site_fract_y
_atom_site_fract_z
V1     V     0.3333   0.1667   0.3333
V2     V     0.3333   0.6667   0.3333
V3     V     0.8333   0.1667   0.3333
V4     V     0.8333   0.6667   0.3333
Er5     Er     0.1667   0.3333   0.1667
Er6     Er     0.1667   0.8333   0.1667
Er7     Er     0.6667   0.3333   0.1667
Er8     Er     0.6667   0.8333   0.1667
Ti9     Ti     0.1667   0.0833   0.1667
Ti10     Ti     0.1667   0.5833   0.1667
Ti11     Ti     0.6667   0.0833   0.1667
Ti12     Ti     0.6667   0.5833   0.1667
Ti13     Ti     0.4167   0.3333   0.1667
Ti14     Ti     0.4167   0.8333   0.1667
Ti15     Ti     0.9167   0.3333   0.1667
Ti16     Ti     0.9167   0.8333   0.1667
Ti17     Ti     0.4167   0.0833   0.1667
Ti18     Ti     0.4167   0.5833   0.1667
Ti19     Ti     0.9167   0.0833   0.1667
Ti20     Ti     0.9167   0.5833   0.1667
Ti21     Ti     0.0   0.25   0.5
Ti22     Ti     1.0   0.75   0.5
Ti23     Ti     0.5   0.25   0.5
Ti24     Ti     0.5   0.75   0.5
Ti25     Ti     0.25   0.0   0.5
Ti26     Ti     0.25   0.5   0.5
Ti27     Ti     0.75   0.0   0.5
Ti28     Ti     0.75   0.5   0.5
Er29     Er     0.0   0.0   0.5
Er30     Er     0.0   0.5   0.5
Er31     Er     0.5   0.0   0.5
Er32     Er     0.5   0.5   0.5
Ti33     Ti     0.25   0.25   0.5
Ti34     Ti     0.25   0.75   0.5
Ti35     Ti     0.75   0.25   0.5
Ti36     Ti     0.75   0.75   0.5
V37     V     0.0   0.0   0.0
V38     V     0.0   0.5   0.0
V39     V     0.5   0.0   0.0
V40     V     0.5   0.5   0.0
V41     V     0.1667   0.3333   0.6667
V42     V     0.1667   0.8333   0.6667
V43     V     0.6667   0.3333   0.6667
V44     V     0.6667   0.8333   0.6667
Ti45     Ti     0.3333   0.4167   0.8333
Ti46     Ti     0.3333   0.9167   0.8333
Ti47     Ti     0.8333   0.4167   0.8333
Ti48     Ti     0.8333   0.9167   0.8333
Er49     Er     0.3333   0.1667   0.8333
Er50     Er     0.3333   0.6667   0.8333
Er51     Er     0.8333   0.1667   0.8333
Er52     Er     0.8333   0.6667   0.8333
Ti53     Ti     0.0833   0.1667   0.8333
Ti54     Ti     0.0833   0.6667   0.8333
Ti55     Ti     0.5833   0.1667   0.8333
Ti56     Ti     0.5833   0.6667   0.8333
Ti57     Ti     0.0833   0.4167   0.8333
Ti58     Ti     0.0833   0.9167   0.8333
Ti59     Ti     0.5833   0.4167   0.8333
Ti60     Ti     0.5833   0.9167   0.8333
loop_
_geom_bond_atom_site_label_1
_geom_bond_atom_site_label_2
_geom_bond_distance
_geom_bond_site_symmetry_2
_ccdc_geom_bond_type
V1     Ti33    10.0   .     S
V1     Ti25    10.0   .     S
V1     Ti23    10.0   .     S
V1     Ti17    10.0   .     S
V1     Ti9    10.0   .     S
V1     Ti13    10.0   .     S
V2     Ti34    10.0   .     S
V2     Ti26    10.0   .     S
V2     Ti24    10.0   .     S
V2     Ti18    10.0   .     S
V2     Ti10    10.0   .     S
V2     Ti14    10.0   .     S
V3     Ti35    10.0   .     S
V3     Ti27    10.0   .     S
V3     Ti21    10.0   1_655     S
V3     Ti19    10.0   .     S
V3     Ti11    10.0   .     S
V3     Ti15    10.0   .     S
V4     Ti36    10.0   .     S
V4     Ti28    10.0   .     S
V4     Ti22    10.0   .     S
V4     Ti20    10.0   .     S
V4     Ti12    10.0   .     S
V4     Ti16    10.0   .     S
Er5     Ti13    10.0   .     S
Er5     Ti18    10.0   .     S
Er5     Ti10    10.0   .     S
Er5     Ti9    10.0   .     S
Er5     Ti19    10.0   1_455     S
Er5     Ti15    10.0   1_455     S
Er6     Ti14    10.0   .     S
Er6     Ti17    10.0   1_565     S
Er6     Ti9    10.0   1_565     S
Er6     Ti10    10.0   .     S
Er6     Ti20    10.0   1_455     S
Er6     Ti16    10.0   1_455     S
Er7     Ti15    10.0   .     S
Er7     Ti20    10.0   .     S
Er7     Ti12    10.0   .     S
Er7     Ti11    10.0   .     S
Er7     Ti17    10.0   .     S
Er7     Ti13    10.0   .     S
Er8     Ti16    10.0   .     S
Er8     Ti19    10.0   1_565     S
Er8     Ti11    10.0   1_565     S
Er8     Ti12    10.0   .     S
Er8     Ti18    10.0   .     S
Er8     Ti14    10.0   .     S
Ti9     Er6    10.0   1_545     S
Ti9     V37    10.0   .     S
Ti10     V38    10.0   .     S
Ti11     Er8    10.0   1_545     S
Ti11     V39    10.0   .     S
Ti12     V40    10.0   .     S
Ti13     V40    10.0   .     S
Ti14     V39    10.0   1_565     S
Ti15     Er5    10.0   1_655     S
Ti15     V38    10.0   1_655     S
Ti16     Er6    10.0   1_655     S
Ti16     V37    10.0   1_665     S
Ti17     Er6    10.0   1_545     S
Ti17     V39    10.0   .     S
Ti18     V40    10.0   .     S
Ti19     Er8    10.0   1_545     S
Ti19     Er5    10.0   1_655     S
Ti19     V37    10.0   1_655     S
Ti20     Er6    10.0   1_655     S
Ti20     V38    10.0   1_655     S
Ti21     V3    10.0   1_455     S
Ti21     Er30    10.0   .     S
Ti21     Er29    10.0   .     S
Ti21     V41    10.0   .     S
Ti22     Er29    10.0   1_665     S
Ti22     Er30    10.0   1_655     S
Ti22     V42    10.0   1_655     S
Ti23     Er32    10.0   .     S
Ti23     Er31    10.0   .     S
Ti23     V43    10.0   .     S
Ti24     Er31    10.0   1_565     S
Ti24     Er32    10.0   .     S
Ti24     V44    10.0   .     S
Ti25     Er29    10.0   .     S
Ti25     Er31    10.0   .     S
Ti25     V42    10.0   1_545     S
Ti26     Er30    10.0   .     S
Ti26     Er32    10.0   .     S
Ti26     V41    10.0   .     S
Ti27     Er31    10.0   .     S
Ti27     Er29    10.0   1_655     S
Ti27     V44    10.0   1_545     S
Ti28     Er32    10.0   .     S
Ti28     Er30    10.0   1_655     S
Ti28     V43    10.0   .     S
Er29     Ti22    10.0   1_445     S
Er29     Ti36    10.0   1_445     S
Er29     Ti33    10.0   .     S
Er29     Ti27    10.0   1_455     S
Er30     Ti22    10.0   1_455     S
Er30     Ti35    10.0   1_455     S
Er30     Ti34    10.0   .     S
Er30     Ti28    10.0   1_455     S
Er31     Ti24    10.0   1_545     S
Er31     Ti34    10.0   1_545     S
Er31     Ti35    10.0   .     S
Er32     Ti33    10.0   .     S
Er32     Ti36    10.0   .     S
Ti33     V41    10.0   .     S
Ti34     Er31    10.0   1_565     S
Ti34     V42    10.0   .     S
Ti35     Er30    10.0   1_655     S
Ti35     V43    10.0   .     S
Ti36     Er29    10.0   1_665     S
Ti36     V44    10.0   .     S
V37     Ti19    10.0   1_455     S
V37     Ti16    10.0   1_445     S
V37     Ti58    10.0   1_544     S
V37     Ti53    10.0   1_554     S
V37     Ti48    10.0   1_444     S
V38     Ti20    10.0   1_455     S
V38     Ti15    10.0   1_455     S
V38     Ti57    10.0   1_554     S
V38     Ti54    10.0   1_554     S
V38     Ti47    10.0   1_454     S
V39     Ti14    10.0   1_545     S
V39     Ti60    10.0   1_544     S
V39     Ti55    10.0   1_554     S
V39     Ti46    10.0   1_544     S
V40     Ti59    10.0   1_554     S
V40     Ti56    10.0   1_554     S
V40     Ti45    10.0   1_554     S
V41     Ti57    10.0   .     S
V41     Ti53    10.0   .     S
V41     Ti45    10.0   .     S
V42     Ti58    10.0   .     S
V42     Ti54    10.0   .     S
V42     Ti46    10.0   .     S
V42     Ti22    10.0   1_455     S
V42     Ti25    10.0   1_565     S
V43     Ti59    10.0   .     S
V43     Ti55    10.0   .     S
V43     Ti47    10.0   .     S
V44     Ti60    10.0   .     S
V44     Ti56    10.0   .     S
V44     Ti48    10.0   .     S
V44     Ti27    10.0   1_565     S
Ti45     V40    10.0   1_556     S
Ti45     Er49    10.0   .     S
Ti45     Er50    10.0   .     S
Ti46     V39    10.0   1_566     S
Ti46     Er50    10.0   .     S
Ti46     Er49    10.0   1_565     S
Ti47     V38    10.0   1_656     S
Ti47     Er51    10.0   .     S
Ti47     Er52    10.0   .     S
Ti48     V37    10.0   1_666     S
Ti48     Er52    10.0   .     S
Ti48     Er51    10.0   1_565     S
Er49     Ti59    10.0   .     S
Er49     Ti58    10.0   1_545     S
Er49     Ti46    10.0   1_545     S
Er49     Ti53    10.0   .     S
Er49     Ti55    10.0   .     S
Er50     Ti60    10.0   .     S
Er50     Ti57    10.0   .     S
Er50     Ti54    10.0   .     S
Er50     Ti56    10.0   .     S
Er51     Ti57    10.0   1_655     S
Er51     Ti60    10.0   1_545     S
Er51     Ti48    10.0   1_545     S
Er51     Ti55    10.0   .     S
Er51     Ti53    10.0   1_655     S
Er52     Ti58    10.0   1_655     S
Er52     Ti59    10.0   .     S
Er52     Ti56    10.0   .     S
Er52     Ti54    10.0   1_655     S
Ti53     V37    10.0   1_556     S
Ti53     Er51    10.0   1_455     S
Ti54     V38    10.0   1_556     S
Ti54     Er52    10.0   1_455     S
Ti55     V39    10.0   1_556     S
Ti56     V40    10.0   1_556     S
Ti57     V38    10.0   1_556     S
Ti57     Er51    10.0   1_455     S
Ti58     V37    10.0   1_566     S
Ti58     Er52    10.0   1_455     S
Ti58     Er49    10.0   1_565     S
Ti59     V40    10.0   1_556     S
Ti60     V39    10.0   1_566     S
Ti60     Er51    10.0   1_565     S
