data_alb-d
_audit_creation_date              2019-12-31
_audit_creation_method            'Pymatgen'
_symmetry_space_group_name_H-M    'P1'
_symmetry_Int_Tables_number       1
loop_
_symmetry_equiv_pos_as_xyz
  x,y,z
_cell_length_a                    48.3148
_cell_length_b                    48.3148
_cell_length_c                    43.7906
_cell_angle_alpha                 90.0
_cell_angle_beta                 90.0
_cell_angle_gamma                 120.0
loop_
_atom_site_label
_atom_site_type_symbol
_atom_site_fract_x
_atom_site_fract_y
_atom_site_fract_z
Er1     Er     0.0   0.0   0.0
Er2     Er     0.0   0.0   0.5
Er3     Er     0.0   0.5   0.0
Er4     Er     0.0   0.5   0.5
Er5     Er     0.5   0.0   0.0
Er6     Er     0.5   0.0   0.5
Er7     Er     0.5   0.5   0.0
Er8     Er     0.5   0.5   0.5
V9     V     0.25   0.25   0.0
V10     V     0.25   0.25   0.5
V11     V     0.25   0.75   0.0
V12     V     0.25   0.75   0.5
V13     V     0.75   0.25   0.0
V14     V     0.75   0.25   0.5
V15     V     0.75   0.75   0.0
V16     V     0.75   0.75   0.5
V17     V     0.25   0.0   0.0
V18     V     0.25   0.0   0.5
V19     V     0.25   0.5   0.0
V20     V     0.25   0.5   0.5
V21     V     0.75   0.0   0.0
V22     V     0.75   0.0   0.5
V23     V     0.75   0.5   0.0
V24     V     0.75   0.5   0.5
Ce25     Ce     0.3333   0.1667   0.25
Ce26     Ce     0.3333   0.1667   0.75
Ce27     Ce     0.3333   0.6667   0.25
Ce28     Ce     0.3333   0.6667   0.75
Ce29     Ce     0.8333   0.1667   0.25
Ce30     Ce     0.8333   0.1667   0.75
Ce31     Ce     0.8333   0.6667   0.25
Ce32     Ce     0.8333   0.6667   0.75
Ti33     Ti     0.0   0.25   0.25
Ti34     Ti     0.0   0.25   0.75
Ti35     Ti     1.0   0.75   0.25
Ti36     Ti     1.0   0.75   0.75
Ti37     Ti     0.5   0.25   0.25
Ti38     Ti     0.5   0.25   0.75
Ti39     Ti     0.5   0.75   0.25
Ti40     Ti     0.5   0.75   0.75
Ce41     Ce     0.1667   0.3333   0.25
Ce42     Ce     0.1667   0.3333   0.75
Ce43     Ce     0.1667   0.8333   0.25
Ce44     Ce     0.1667   0.8333   0.75
Ce45     Ce     0.6667   0.3333   0.25
Ce46     Ce     0.6667   0.3333   0.75
Ce47     Ce     0.6667   0.8333   0.25
Ce48     Ce     0.6667   0.8333   0.75
Ti49     Ti     0.25   0.25   0.25
Ti50     Ti     0.25   0.25   0.75
Ti51     Ti     0.25   0.75   0.25
Ti52     Ti     0.25   0.75   0.75
Ti53     Ti     0.75   0.25   0.25
Ti54     Ti     0.75   0.25   0.75
Ti55     Ti     0.75   0.75   0.25
Ti56     Ti     0.75   0.75   0.75
Ti57     Ti     0.25   0.0   0.25
Ti58     Ti     0.25   0.0   0.75
Ti59     Ti     0.25   0.5   0.25
Ti60     Ti     0.25   0.5   0.75
Ti61     Ti     0.75   0.0   0.25
Ti62     Ti     0.75   0.0   0.75
Ti63     Ti     0.75   0.5   0.25
Ti64     Ti     0.75   0.5   0.75
V65     V     0.0   0.25   0.0
V66     V     0.0   0.25   0.5
V67     V     1.0   0.75   0.0
V68     V     1.0   0.75   0.5
V69     V     0.5   0.25   0.0
V70     V     0.5   0.25   0.5
V71     V     0.5   0.75   0.0
V72     V     0.5   0.75   0.5
loop_
_geom_bond_atom_site_label_1
_geom_bond_atom_site_label_2
_geom_bond_distance
_geom_bond_site_symmetry_2
_ccdc_geom_bond_type
Er1     V21    12.079   1_455     S
Er1     V67    12.079   1_445     S
Er1     V15    12.079   1_445     S
Er1     V65    12.079   .     S
Er1     V17    12.079   .     S
Er1     V9    12.079   .     S
Er2     V22    12.079   1_455     S
Er2     V68    12.079   1_445     S
Er2     V16    12.079   1_445     S
Er2     V66    12.079   .     S
Er2     V18    12.079   .     S
Er2     V10    12.079   .     S
Er3     V23    12.079   1_455     S
Er3     V65    12.079   .     S
Er3     V13    12.079   1_455     S
Er3     V67    12.079   1_455     S
Er3     V19    12.079   .     S
Er3     V11    12.079   .     S
Er4     V24    12.079   1_455     S
Er4     V66    12.079   .     S
Er4     V14    12.079   1_455     S
Er4     V68    12.079   1_455     S
Er4     V20    12.079   .     S
Er4     V12    12.079   .     S
Er5     V17    12.079   .     S
Er5     V71    12.079   1_545     S
Er5     V11    12.079   1_545     S
Er5     V69    12.079   .     S
Er5     V21    12.079   .     S
Er5     V13    12.079   .     S
Er6     V18    12.079   .     S
Er6     V72    12.079   1_545     S
Er6     V12    12.079   1_545     S
Er6     V70    12.079   .     S
Er6     V22    12.079   .     S
Er6     V14    12.079   .     S
Er7     V19    12.079   .     S
Er7     V69    12.079   .     S
Er7     V9    12.079   .     S
Er7     V71    12.079   .     S
Er7     V23    12.079   .     S
Er7     V15    12.079   .     S
Er8     V20    12.079   .     S
Er8     V70    12.079   .     S
Er8     V10    12.079   .     S
Er8     V72    12.079   .     S
Er8     V24    12.079   .     S
Er8     V16    12.079   .     S
V9     Ti50    10.948   1_554     S
V9     Ti49    10.948   .     S
V10     Ti49    10.948   .     S
V10     Ti50    10.948   .     S
V11     Er5    12.079   1_565     S
V11     Ti52    10.948   1_554     S
V11     Ti51    10.948   .     S
V12     Er6    12.079   1_565     S
V12     Ti51    10.948   .     S
V12     Ti52    10.948   .     S
V13     Er3    12.079   1_655     S
V13     Ti54    10.948   1_554     S
V13     Ti53    10.948   .     S
V14     Er4    12.079   1_655     S
V14     Ti53    10.948   .     S
V14     Ti54    10.948   .     S
V15     Er1    12.079   1_665     S
V15     Ti56    10.948   1_554     S
V15     Ti55    10.948   .     S
V16     Er2    12.079   1_665     S
V16     Ti55    10.948   .     S
V16     Ti56    10.948   .     S
V17     Ti58    10.948   1_554     S
V17     Ti57    10.948   .     S
V18     Ti57    10.948   .     S
V18     Ti58    10.948   .     S
V19     Ti60    10.948   1_554     S
V19     Ti59    10.948   .     S
V20     Ti59    10.948   .     S
V20     Ti60    10.948   .     S
V21     Er1    12.079   1_655     S
V21     Ti62    10.948   1_554     S
V21     Ti61    10.948   .     S
V22     Er2    12.079   1_655     S
V22     Ti61    10.948   .     S
V22     Ti62    10.948   .     S
V23     Er3    12.079   1_655     S
V23     Ti64    10.948   1_554     S
V23     Ti63    10.948   .     S
V24     Er4    12.079   1_655     S
V24     Ti63    10.948   .     S
V24     Ti64    10.948   .     S
Ce25     Ti37    6.974   .     S
Ce25     Ti49    6.974   .     S
Ce25     Ti57    6.974   .     S
Ce26     Ti38    6.974   .     S
Ce26     Ti50    6.974   .     S
Ce26     Ti58    6.974   .     S
Ce27     Ti39    6.974   .     S
Ce27     Ti51    6.974   .     S
Ce27     Ti59    6.974   .     S
Ce28     Ti40    6.974   .     S
Ce28     Ti52    6.974   .     S
Ce28     Ti60    6.974   .     S
Ce29     Ti33    6.974   1_655     S
Ce29     Ti53    6.974   .     S
Ce29     Ti61    6.974   .     S
Ce30     Ti34    6.974   1_655     S
Ce30     Ti54    6.974   .     S
Ce30     Ti62    6.974   .     S
Ce31     Ti35    6.974   .     S
Ce31     Ti55    6.974   .     S
Ce31     Ti63    6.974   .     S
Ce32     Ti36    6.974   .     S
Ce32     Ti56    6.974   .     S
Ce32     Ti64    6.974   .     S
Ti33     Ce29    6.974   1_455     S
Ti33     Ce41    6.974   .     S
Ti33     V66    10.948   .     S
Ti33     V65    10.948   .     S
Ti34     Ce30    6.974   1_455     S
Ti34     Ce42    6.974   .     S
Ti34     V65    10.948   1_556     S
Ti34     V66    10.948   .     S
Ti35     Ce43    6.974   1_655     S
Ti35     V68    10.948   .     S
Ti35     V67    10.948   .     S
Ti36     Ce44    6.974   1_655     S
Ti36     V67    10.948   1_556     S
Ti36     V68    10.948   .     S
Ti37     Ce45    6.974   .     S
Ti37     V70    10.948   .     S
Ti37     V69    10.948   .     S
Ti38     Ce46    6.974   .     S
Ti38     V69    10.948   1_556     S
Ti38     V70    10.948   .     S
Ti39     Ce47    6.974   .     S
Ti39     V72    10.948   .     S
Ti39     V71    10.948   .     S
Ti40     Ce48    6.974   .     S
Ti40     V71    10.948   1_556     S
Ti40     V72    10.948   .     S
Ce41     Ti59    6.974   .     S
Ce41     Ti49    6.974   .     S
Ce42     Ti60    6.974   .     S
Ce42     Ti50    6.974   .     S
Ce43     Ti57    6.974   1_565     S
Ce43     Ti51    6.974   .     S
Ce43     Ti35    6.974   1_455     S
Ce44     Ti58    6.974   1_565     S
Ce44     Ti52    6.974   .     S
Ce44     Ti36    6.974   1_455     S
Ce45     Ti63    6.974   .     S
Ce45     Ti53    6.974   .     S
Ce46     Ti64    6.974   .     S
Ce46     Ti54    6.974   .     S
Ce47     Ti61    6.974   1_565     S
Ce47     Ti55    6.974   .     S
Ce48     Ti62    6.974   1_565     S
Ce48     Ti56    6.974   .     S
Ti50     V9    10.948   1_556     S
Ti52     V11    10.948   1_556     S
Ti54     V13    10.948   1_556     S
Ti56     V15    10.948   1_556     S
Ti57     Ce43    6.974   1_545     S
Ti58     Ce44    6.974   1_545     S
Ti58     V17    10.948   1_556     S
Ti60     V19    10.948   1_556     S
Ti61     Ce47    6.974   1_545     S
Ti62     Ce48    6.974   1_545     S
Ti62     V21    10.948   1_556     S
Ti64     V23    10.948   1_556     S
V65     Ti34    10.948   1_554     S
V67     Er1    12.079   1_665     S
V67     Er3    12.079   1_655     S
V67     Ti36    10.948   1_554     S
V68     Er2    12.079   1_665     S
V68     Er4    12.079   1_655     S
V69     Ti38    10.948   1_554     S
V71     Er5    12.079   1_565     S
V71     Ti40    10.948   1_554     S
V72     Er6    12.079   1_565     S
