data_alb-x
_audit_creation_date              2019-12-31
_audit_creation_method            'Pymatgen'
_symmetry_space_group_name_H-M    'P1'
_symmetry_Int_Tables_number       1
loop_
_symmetry_equiv_pos_as_xyz
  x,y,z
_cell_length_a                    37.8909
_cell_length_b                    37.8909
_cell_length_c                    39.0063
_cell_angle_alpha                 90.0
_cell_angle_beta                 90.0
_cell_angle_gamma                 120.0
loop_
_atom_site_label
_atom_site_type_symbol
_atom_site_fract_x
_atom_site_fract_y
_atom_site_fract_z
V1     V     0.1111   0.2222   0.0
V2     V     0.1111   0.2222   0.3333
V3     V     0.1111   0.2222   0.6667
V4     V     0.1111   0.5556   0.0
V5     V     0.1111   0.5556   0.3333
V6     V     0.1111   0.5556   0.6667
V7     V     0.1111   0.8889   0.0
V8     V     0.1111   0.8889   0.3333
V9     V     0.1111   0.8889   0.6667
V10     V     0.4444   0.2222   0.0
V11     V     0.4444   0.2222   0.3333
V12     V     0.4444   0.2222   0.6667
V13     V     0.4444   0.5556   0.0
V14     V     0.4444   0.5556   0.3333
V15     V     0.4444   0.5556   0.6667
V16     V     0.4444   0.8889   0.0
V17     V     0.4444   0.8889   0.3333
V18     V     0.4444   0.8889   0.6667
V19     V     0.7778   0.2222   0.0
V20     V     0.7778   0.2222   0.3333
V21     V     0.7778   0.2222   0.6667
V22     V     0.7778   0.5556   0.0
V23     V     0.7778   0.5556   0.3333
V24     V     0.7778   0.5556   0.6667
V25     V     0.7778   0.8889   0.0
V26     V     0.7778   0.8889   0.3333
V27     V     0.7778   0.8889   0.6667
V28     V     0.2222   0.1111   0.0
V29     V     0.2222   0.1111   0.3333
V30     V     0.2222   0.1111   0.6667
V31     V     0.2222   0.4444   0.0
V32     V     0.2222   0.4444   0.3333
V33     V     0.2222   0.4444   0.6667
V34     V     0.2222   0.7778   0.0
V35     V     0.2222   0.7778   0.3333
V36     V     0.2222   0.7778   0.6667
V37     V     0.5556   0.1111   0.0
V38     V     0.5556   0.1111   0.3333
V39     V     0.5556   0.1111   0.6667
V40     V     0.5556   0.4444   0.0
V41     V     0.5556   0.4444   0.3333
V42     V     0.5556   0.4444   0.6667
V43     V     0.5556   0.7778   0.0
V44     V     0.5556   0.7778   0.3333
V45     V     0.5556   0.7778   0.6667
V46     V     0.8889   0.1111   0.0
V47     V     0.8889   0.1111   0.3333
V48     V     0.8889   0.1111   0.6667
V49     V     0.8889   0.4444   0.0
V50     V     0.8889   0.4444   0.3333
V51     V     0.8889   0.4444   0.6667
V52     V     0.8889   0.7778   0.0
V53     V     0.8889   0.7778   0.3333
V54     V     0.8889   0.7778   0.6667
Er55     Er     0.0   0.0   0.1667
Er56     Er     0.0   0.0   0.5
Er57     Er     0.0   0.0   0.8333
Er58     Er     1.0   0.3333   0.1667
Er59     Er     1.0   0.3333   0.5
Er60     Er     1.0   0.3333   0.8333
Er61     Er     1.0   0.6667   0.1667
Er62     Er     1.0   0.6667   0.5
Er63     Er     1.0   0.6667   0.8333
Er64     Er     0.3333   0.0   0.1667
Er65     Er     0.3333   0.0   0.5
Er66     Er     0.3333   0.0   0.8333
Er67     Er     0.3333   0.3333   0.1667
Er68     Er     0.3333   0.3333   0.5
Er69     Er     0.3333   0.3333   0.8333
Er70     Er     0.3333   0.6667   0.1667
Er71     Er     0.3333   0.6667   0.5
Er72     Er     0.3333   0.6667   0.8333
Er73     Er     0.6667   0.0   0.1667
Er74     Er     0.6667   0.0   0.5
Er75     Er     0.6667   0.0   0.8333
Er76     Er     0.6667   0.3333   0.1667
Er77     Er     0.6667   0.3333   0.5
Er78     Er     0.6667   0.3333   0.8333
Er79     Er     0.6667   0.6667   0.1667
Er80     Er     0.6667   0.6667   0.5
Er81     Er     0.6667   0.6667   0.8333
loop_
_geom_bond_atom_site_label_1
_geom_bond_atom_site_label_2
_geom_bond_distance
_geom_bond_site_symmetry_2
_ccdc_geom_bond_type
V1     V28    7.292   .     S
V1     V31    7.292   .     S
V1     V46    7.292   1_455     S
V1     Er60    9.769   1_454     S
V1     Er69    9.769   1_554     S
V1     Er57    9.769   1_554     S
V1     Er58    9.769   1_455     S
V1     Er67    9.769   .     S
V1     Er55    9.769   .     S
V2     V29    7.292   .     S
V2     V32    7.292   .     S
V2     V47    7.292   1_455     S
V2     Er58    9.769   1_455     S
V2     Er67    9.769   .     S
V2     Er55    9.769   .     S
V2     Er59    9.769   1_455     S
V2     Er68    9.769   .     S
V2     Er56    9.769   .     S
V3     V30    7.292   .     S
V3     V33    7.292   .     S
V3     V48    7.292   1_455     S
V3     Er59    9.769   1_455     S
V3     Er68    9.769   .     S
V3     Er56    9.769   .     S
V3     Er60    9.769   1_455     S
V3     Er69    9.769   .     S
V3     Er57    9.769   .     S
V4     V31    7.292   .     S
V4     V34    7.292   .     S
V4     V49    7.292   1_455     S
V4     Er63    9.769   1_454     S
V4     Er72    9.769   1_554     S
V4     Er60    9.769   1_454     S
V4     Er61    9.769   1_455     S
V4     Er70    9.769   .     S
V4     Er58    9.769   1_455     S
V5     V32    7.292   .     S
V5     V35    7.292   .     S
V5     V50    7.292   1_455     S
V5     Er61    9.769   1_455     S
V5     Er70    9.769   .     S
V5     Er58    9.769   1_455     S
V5     Er62    9.769   1_455     S
V5     Er71    9.769   .     S
V5     Er59    9.769   1_455     S
V6     V33    7.292   .     S
V6     V36    7.292   .     S
V6     V51    7.292   1_455     S
V6     Er62    9.769   1_455     S
V6     Er71    9.769   .     S
V6     Er59    9.769   1_455     S
V6     Er63    9.769   1_455     S
V6     Er72    9.769   .     S
V6     Er60    9.769   1_455     S
V7     V34    7.292   .     S
V7     V28    7.292   1_565     S
V7     V52    7.292   1_455     S
V7     Er57    9.769   1_564     S
V7     Er66    9.769   1_564     S
V7     Er63    9.769   1_454     S
V7     Er55    9.769   1_565     S
V7     Er64    9.769   1_565     S
V7     Er61    9.769   1_455     S
V8     V35    7.292   .     S
V8     V29    7.292   1_565     S
V8     V53    7.292   1_455     S
V8     Er55    9.769   1_565     S
V8     Er64    9.769   1_565     S
V8     Er61    9.769   1_455     S
V8     Er56    9.769   1_565     S
V8     Er65    9.769   1_565     S
V8     Er62    9.769   1_455     S
V9     V36    7.292   .     S
V9     V30    7.292   1_565     S
V9     V54    7.292   1_455     S
V9     Er56    9.769   1_565     S
V9     Er65    9.769   1_565     S
V9     Er62    9.769   1_455     S
V9     Er57    9.769   1_565     S
V9     Er66    9.769   1_565     S
V9     Er63    9.769   1_455     S
V10     V37    7.292   .     S
V10     V40    7.292   .     S
V10     V28    7.292   .     S
V10     Er69    9.769   1_554     S
V10     Er78    9.769   1_554     S
V10     Er66    9.769   1_554     S
V10     Er67    9.769   .     S
V10     Er76    9.769   .     S
V10     Er64    9.769   .     S
V11     V38    7.292   .     S
V11     V41    7.292   .     S
V11     V29    7.292   .     S
V11     Er67    9.769   .     S
V11     Er76    9.769   .     S
V11     Er64    9.769   .     S
V11     Er68    9.769   .     S
V11     Er77    9.769   .     S
V11     Er65    9.769   .     S
V12     V39    7.292   .     S
V12     V42    7.292   .     S
V12     V30    7.292   .     S
V12     Er68    9.769   .     S
V12     Er77    9.769   .     S
V12     Er65    9.769   .     S
V12     Er69    9.769   .     S
V12     Er78    9.769   .     S
V12     Er66    9.769   .     S
V13     V40    7.292   .     S
V13     V43    7.292   .     S
V13     V31    7.292   .     S
V13     Er72    9.769   1_554     S
V13     Er81    9.769   1_554     S
V13     Er69    9.769   1_554     S
V13     Er70    9.769   .     S
V13     Er79    9.769   .     S
V13     Er67    9.769   .     S
V14     V41    7.292   .     S
V14     V44    7.292   .     S
V14     V32    7.292   .     S
V14     Er70    9.769   .     S
V14     Er79    9.769   .     S
V14     Er67    9.769   .     S
V14     Er71    9.769   .     S
V14     Er80    9.769   .     S
V14     Er68    9.769   .     S
V15     V42    7.292   .     S
V15     V45    7.292   .     S
V15     V33    7.292   .     S
V15     Er71    9.769   .     S
V15     Er80    9.769   .     S
V15     Er68    9.769   .     S
V15     Er72    9.769   .     S
V15     Er81    9.769   .     S
V15     Er69    9.769   .     S
V16     V43    7.292   .     S
V16     V37    7.292   1_565     S
V16     V34    7.292   .     S
V16     Er66    9.769   1_564     S
V16     Er75    9.769   1_564     S
V16     Er72    9.769   1_554     S
V16     Er64    9.769   1_565     S
V16     Er73    9.769   1_565     S
V16     Er70    9.769   .     S
V17     V44    7.292   .     S
V17     V38    7.292   1_565     S
V17     V35    7.292   .     S
V17     Er64    9.769   1_565     S
V17     Er73    9.769   1_565     S
V17     Er70    9.769   .     S
V17     Er65    9.769   1_565     S
V17     Er74    9.769   1_565     S
V17     Er71    9.769   .     S
V18     V45    7.292   .     S
V18     V39    7.292   1_565     S
V18     V36    7.292   .     S
V18     Er65    9.769   1_565     S
V18     Er74    9.769   1_565     S
V18     Er71    9.769   .     S
V18     Er66    9.769   1_565     S
V18     Er75    9.769   1_565     S
V18     Er72    9.769   .     S
V19     V46    7.292   .     S
V19     V49    7.292   .     S
V19     V37    7.292   .     S
V19     Er78    9.769   1_554     S
V19     Er60    9.769   1_554     S
V19     Er75    9.769   1_554     S
V19     Er76    9.769   .     S
V19     Er58    9.769   .     S
V19     Er73    9.769   .     S
V20     V47    7.292   .     S
V20     V50    7.292   .     S
V20     V38    7.292   .     S
V20     Er76    9.769   .     S
V20     Er58    9.769   .     S
V20     Er73    9.769   .     S
V20     Er77    9.769   .     S
V20     Er59    9.769   .     S
V20     Er74    9.769   .     S
V21     V48    7.292   .     S
V21     V51    7.292   .     S
V21     V39    7.292   .     S
V21     Er77    9.769   .     S
V21     Er59    9.769   .     S
V21     Er74    9.769   .     S
V21     Er78    9.769   .     S
V21     Er60    9.769   .     S
V21     Er75    9.769   .     S
V22     V49    7.292   .     S
V22     V52    7.292   .     S
V22     V40    7.292   .     S
V22     Er81    9.769   1_554     S
V22     Er63    9.769   1_554     S
V22     Er78    9.769   1_554     S
V22     Er79    9.769   .     S
V22     Er61    9.769   .     S
V22     Er76    9.769   .     S
V23     V50    7.292   .     S
V23     V53    7.292   .     S
V23     V41    7.292   .     S
V23     Er79    9.769   .     S
V23     Er61    9.769   .     S
V23     Er76    9.769   .     S
V23     Er80    9.769   .     S
V23     Er62    9.769   .     S
V23     Er77    9.769   .     S
V24     V51    7.292   .     S
V24     V54    7.292   .     S
V24     V42    7.292   .     S
V24     Er80    9.769   .     S
V24     Er62    9.769   .     S
V24     Er77    9.769   .     S
V24     Er81    9.769   .     S
V24     Er63    9.769   .     S
V24     Er78    9.769   .     S
V25     V52    7.292   .     S
V25     V46    7.292   1_565     S
V25     V43    7.292   .     S
V25     Er75    9.769   1_564     S
V25     Er57    9.769   1_664     S
V25     Er81    9.769   1_554     S
V25     Er73    9.769   1_565     S
V25     Er55    9.769   1_665     S
V25     Er79    9.769   .     S
V26     V53    7.292   .     S
V26     V47    7.292   1_565     S
V26     V44    7.292   .     S
V26     Er73    9.769   1_565     S
V26     Er55    9.769   1_665     S
V26     Er79    9.769   .     S
V26     Er74    9.769   1_565     S
V26     Er56    9.769   1_665     S
V26     Er80    9.769   .     S
V27     V54    7.292   .     S
V27     V48    7.292   1_565     S
V27     V45    7.292   .     S
V27     Er74    9.769   1_565     S
V27     Er56    9.769   1_665     S
V27     Er80    9.769   .     S
V27     Er75    9.769   1_565     S
V27     Er57    9.769   1_665     S
V27     Er81    9.769   .     S
V28     V7    7.292   1_545     S
V28     Er69    9.769   1_554     S
V28     Er57    9.769   1_554     S
V28     Er66    9.769   1_554     S
V28     Er67    9.769   .     S
V28     Er55    9.769   .     S
V28     Er64    9.769   .     S
V29     V8    7.292   1_545     S
V29     Er67    9.769   .     S
V29     Er55    9.769   .     S
V29     Er64    9.769   .     S
V29     Er68    9.769   .     S
V29     Er56    9.769   .     S
V29     Er65    9.769   .     S
V30     V9    7.292   1_545     S
V30     Er68    9.769   .     S
V30     Er56    9.769   .     S
V30     Er65    9.769   .     S
V30     Er69    9.769   .     S
V30     Er57    9.769   .     S
V30     Er66    9.769   .     S
V31     Er72    9.769   1_554     S
V31     Er60    9.769   1_454     S
V31     Er69    9.769   1_554     S
V31     Er70    9.769   .     S
V31     Er58    9.769   1_455     S
V31     Er67    9.769   .     S
V32     Er70    9.769   .     S
V32     Er58    9.769   1_455     S
V32     Er67    9.769   .     S
V32     Er71    9.769   .     S
V32     Er59    9.769   1_455     S
V32     Er68    9.769   .     S
V33     Er71    9.769   .     S
V33     Er59    9.769   1_455     S
V33     Er68    9.769   .     S
V33     Er72    9.769   .     S
V33     Er60    9.769   1_455     S
V33     Er69    9.769   .     S
V34     Er66    9.769   1_564     S
V34     Er63    9.769   1_454     S
V34     Er72    9.769   1_554     S
V34     Er64    9.769   1_565     S
V34     Er61    9.769   1_455     S
V34     Er70    9.769   .     S
V35     Er64    9.769   1_565     S
V35     Er61    9.769   1_455     S
V35     Er70    9.769   .     S
V35     Er65    9.769   1_565     S
V35     Er62    9.769   1_455     S
V35     Er71    9.769   .     S
V36     Er65    9.769   1_565     S
V36     Er62    9.769   1_455     S
V36     Er71    9.769   .     S
V36     Er66    9.769   1_565     S
V36     Er63    9.769   1_455     S
V36     Er72    9.769   .     S
V37     V16    7.292   1_545     S
V37     Er78    9.769   1_554     S
V37     Er66    9.769   1_554     S
V37     Er75    9.769   1_554     S
V37     Er76    9.769   .     S
V37     Er64    9.769   .     S
V37     Er73    9.769   .     S
V38     V17    7.292   1_545     S
V38     Er76    9.769   .     S
V38     Er64    9.769   .     S
V38     Er73    9.769   .     S
V38     Er77    9.769   .     S
V38     Er65    9.769   .     S
V38     Er74    9.769   .     S
V39     V18    7.292   1_545     S
V39     Er77    9.769   .     S
V39     Er65    9.769   .     S
V39     Er74    9.769   .     S
V39     Er78    9.769   .     S
V39     Er66    9.769   .     S
V39     Er75    9.769   .     S
V40     Er81    9.769   1_554     S
V40     Er69    9.769   1_554     S
V40     Er78    9.769   1_554     S
V40     Er79    9.769   .     S
V40     Er67    9.769   .     S
V40     Er76    9.769   .     S
V41     Er79    9.769   .     S
V41     Er67    9.769   .     S
V41     Er76    9.769   .     S
V41     Er80    9.769   .     S
V41     Er68    9.769   .     S
V41     Er77    9.769   .     S
V42     Er80    9.769   .     S
V42     Er68    9.769   .     S
V42     Er77    9.769   .     S
V42     Er81    9.769   .     S
V42     Er69    9.769   .     S
V42     Er78    9.769   .     S
V43     Er75    9.769   1_564     S
V43     Er72    9.769   1_554     S
V43     Er81    9.769   1_554     S
V43     Er73    9.769   1_565     S
V43     Er70    9.769   .     S
V43     Er79    9.769   .     S
V44     Er73    9.769   1_565     S
V44     Er70    9.769   .     S
V44     Er79    9.769   .     S
V44     Er74    9.769   1_565     S
V44     Er71    9.769   .     S
V44     Er80    9.769   .     S
V45     Er74    9.769   1_565     S
V45     Er71    9.769   .     S
V45     Er80    9.769   .     S
V45     Er75    9.769   1_565     S
V45     Er72    9.769   .     S
V45     Er81    9.769   .     S
V46     V25    7.292   1_545     S
V46     V1    7.292   1_655     S
V46     Er60    9.769   1_554     S
V46     Er75    9.769   1_554     S
V46     Er57    9.769   1_654     S
V46     Er58    9.769   .     S
V46     Er73    9.769   .     S
V46     Er55    9.769   1_655     S
V47     V26    7.292   1_545     S
V47     V2    7.292   1_655     S
V47     Er58    9.769   .     S
V47     Er73    9.769   .     S
V47     Er55    9.769   1_655     S
V47     Er59    9.769   .     S
V47     Er74    9.769   .     S
V47     Er56    9.769   1_655     S
V48     V27    7.292   1_545     S
V48     V3    7.292   1_655     S
V48     Er59    9.769   .     S
V48     Er74    9.769   .     S
V48     Er56    9.769   1_655     S
V48     Er60    9.769   .     S
V48     Er75    9.769   .     S
V48     Er57    9.769   1_655     S
V49     V4    7.292   1_655     S
V49     Er63    9.769   1_554     S
V49     Er78    9.769   1_554     S
V49     Er60    9.769   1_554     S
V49     Er61    9.769   .     S
V49     Er76    9.769   .     S
V49     Er58    9.769   .     S
V50     V5    7.292   1_655     S
V50     Er61    9.769   .     S
V50     Er76    9.769   .     S
V50     Er58    9.769   .     S
V50     Er62    9.769   .     S
V50     Er77    9.769   .     S
V50     Er59    9.769   .     S
V51     V6    7.292   1_655     S
V51     Er62    9.769   .     S
V51     Er77    9.769   .     S
V51     Er59    9.769   .     S
V51     Er63    9.769   .     S
V51     Er78    9.769   .     S
V51     Er60    9.769   .     S
V52     V7    7.292   1_655     S
V52     Er57    9.769   1_664     S
V52     Er81    9.769   1_554     S
V52     Er63    9.769   1_554     S
V52     Er55    9.769   1_665     S
V52     Er79    9.769   .     S
V52     Er61    9.769   .     S
V53     V8    7.292   1_655     S
V53     Er55    9.769   1_665     S
V53     Er79    9.769   .     S
V53     Er61    9.769   .     S
V53     Er56    9.769   1_665     S
V53     Er80    9.769   .     S
V53     Er62    9.769   .     S
V54     V9    7.292   1_655     S
V54     Er56    9.769   1_665     S
V54     Er80    9.769   .     S
V54     Er62    9.769   .     S
V54     Er57    9.769   1_665     S
V54     Er81    9.769   .     S
V54     Er63    9.769   .     S
Er55     Er57    13.002   1_554     S
Er55     Er56    13.002   .     S
Er55     V8    9.769   1_545     S
Er55     V53    9.769   1_445     S
Er55     V26    9.769   1_445     S
Er55     V47    9.769   1_455     S
Er55     V7    9.769   1_545     S
Er55     V52    9.769   1_445     S
Er55     V25    9.769   1_445     S
Er55     V46    9.769   1_455     S
Er55     Er58    12.63   1_455     S
Er55     Er61    12.63   1_445     S
Er55     Er64    12.63   .     S
Er55     Er73    12.63   1_455     S
Er55     Er67    12.63   .     S
Er55     Er79    12.63   1_445     S
Er56     Er57    13.002   .     S
Er56     V9    9.769   1_545     S
Er56     V54    9.769   1_445     S
Er56     V27    9.769   1_445     S
Er56     V48    9.769   1_455     S
Er56     V8    9.769   1_545     S
Er56     V53    9.769   1_445     S
Er56     V26    9.769   1_445     S
Er56     V47    9.769   1_455     S
Er56     Er59    12.63   1_455     S
Er56     Er62    12.63   1_445     S
Er56     Er65    12.63   .     S
Er56     Er74    12.63   1_455     S
Er56     Er68    12.63   .     S
Er56     Er80    12.63   1_445     S
Er57     Er55    13.002   1_556     S
Er57     V7    9.769   1_546     S
Er57     V52    9.769   1_446     S
Er57     V25    9.769   1_446     S
Er57     V28    9.769   1_556     S
Er57     V1    9.769   1_556     S
Er57     V46    9.769   1_456     S
Er57     V9    9.769   1_545     S
Er57     V54    9.769   1_445     S
Er57     V27    9.769   1_445     S
Er57     V48    9.769   1_455     S
Er57     Er60    12.63   1_455     S
Er57     Er63    12.63   1_445     S
Er57     Er66    12.63   .     S
Er57     Er75    12.63   1_455     S
Er57     Er69    12.63   .     S
Er57     Er81    12.63   1_445     S
Er58     Er60    13.002   1_554     S
Er58     Er59    13.002   .     S
Er58     V2    9.769   1_655     S
Er58     V32    9.769   1_655     S
Er58     V5    9.769   1_655     S
Er58     V1    9.769   1_655     S
Er58     V31    9.769   1_655     S
Er58     V4    9.769   1_655     S
Er58     Er55    12.63   1_655     S
Er58     Er61    12.63   .     S
Er58     Er67    12.63   1_655     S
Er58     Er76    12.63   .     S
Er58     Er70    12.63   1_655     S
Er58     Er73    12.63   .     S
Er59     Er60    13.002   .     S
Er59     V3    9.769   1_655     S
Er59     V33    9.769   1_655     S
Er59     V6    9.769   1_655     S
Er59     V2    9.769   1_655     S
Er59     V32    9.769   1_655     S
Er59     V5    9.769   1_655     S
Er59     Er56    12.63   1_655     S
Er59     Er62    12.63   .     S
Er59     Er68    12.63   1_655     S
Er59     Er77    12.63   .     S
Er59     Er71    12.63   1_655     S
Er59     Er74    12.63   .     S
Er60     Er58    13.002   1_556     S
Er60     V1    9.769   1_656     S
Er60     V46    9.769   1_556     S
Er60     V19    9.769   1_556     S
Er60     V31    9.769   1_656     S
Er60     V4    9.769   1_656     S
Er60     V49    9.769   1_556     S
Er60     V3    9.769   1_655     S
Er60     V33    9.769   1_655     S
Er60     V6    9.769   1_655     S
Er60     Er57    12.63   1_655     S
Er60     Er63    12.63   .     S
Er60     Er69    12.63   1_655     S
Er60     Er78    12.63   .     S
Er60     Er72    12.63   1_655     S
Er60     Er75    12.63   .     S
Er61     Er63    13.002   1_554     S
Er61     Er62    13.002   .     S
Er61     V5    9.769   1_655     S
Er61     V35    9.769   1_655     S
Er61     V8    9.769   1_655     S
Er61     V4    9.769   1_655     S
Er61     V34    9.769   1_655     S
Er61     V7    9.769   1_655     S
Er61     Er55    12.63   1_665     S
Er61     Er70    12.63   1_655     S
Er61     Er79    12.63   .     S
Er61     Er64    12.63   1_665     S
Er61     Er76    12.63   .     S
Er62     Er63    13.002   .     S
Er62     V6    9.769   1_655     S
Er62     V36    9.769   1_655     S
Er62     V9    9.769   1_655     S
Er62     V5    9.769   1_655     S
Er62     V35    9.769   1_655     S
Er62     V8    9.769   1_655     S
Er62     Er56    12.63   1_665     S
Er62     Er71    12.63   1_655     S
Er62     Er80    12.63   .     S
Er62     Er65    12.63   1_665     S
Er62     Er77    12.63   .     S
Er63     Er61    13.002   1_556     S
Er63     V4    9.769   1_656     S
Er63     V49    9.769   1_556     S
Er63     V22    9.769   1_556     S
Er63     V34    9.769   1_656     S
Er63     V7    9.769   1_656     S
Er63     V52    9.769   1_556     S
Er63     V6    9.769   1_655     S
Er63     V36    9.769   1_655     S
Er63     V9    9.769   1_655     S
Er63     Er57    12.63   1_665     S
Er63     Er72    12.63   1_655     S
Er63     Er81    12.63   .     S
Er63     Er66    12.63   1_665     S
Er63     Er78    12.63   .     S
Er64     Er66    13.002   1_554     S
Er64     Er65    13.002   .     S
Er64     V17    9.769   1_545     S
Er64     V35    9.769   1_545     S
Er64     V8    9.769   1_545     S
Er64     V16    9.769   1_545     S
Er64     V34    9.769   1_545     S
Er64     V7    9.769   1_545     S
Er64     Er67    12.63   .     S
Er64     Er70    12.63   1_545     S
Er64     Er73    12.63   .     S
Er64     Er61    12.63   1_445     S
Er64     Er76    12.63   .     S
Er65     Er66    13.002   .     S
Er65     V18    9.769   1_545     S
Er65     V36    9.769   1_545     S
Er65     V9    9.769   1_545     S
Er65     V17    9.769   1_545     S
Er65     V35    9.769   1_545     S
Er65     V8    9.769   1_545     S
Er65     Er68    12.63   .     S
Er65     Er71    12.63   1_545     S
Er65     Er74    12.63   .     S
Er65     Er62    12.63   1_445     S
Er65     Er77    12.63   .     S
Er66     Er64    13.002   1_556     S
Er66     V16    9.769   1_546     S
Er66     V34    9.769   1_546     S
Er66     V7    9.769   1_546     S
Er66     V37    9.769   1_556     S
Er66     V10    9.769   1_556     S
Er66     V28    9.769   1_556     S
Er66     V18    9.769   1_545     S
Er66     V36    9.769   1_545     S
Er66     V9    9.769   1_545     S
Er66     Er69    12.63   .     S
Er66     Er72    12.63   1_545     S
Er66     Er75    12.63   .     S
Er66     Er63    12.63   1_445     S
Er66     Er78    12.63   .     S
Er67     Er69    13.002   1_554     S
Er67     Er68    13.002   .     S
Er67     Er70    12.63   .     S
Er67     Er58    12.63   1_455     S
Er67     Er76    12.63   .     S
Er67     Er79    12.63   .     S
Er68     Er69    13.002   .     S
Er68     Er71    12.63   .     S
Er68     Er59    12.63   1_455     S
Er68     Er77    12.63   .     S
Er68     Er80    12.63   .     S
Er69     Er67    13.002   1_556     S
Er69     V10    9.769   1_556     S
Er69     V28    9.769   1_556     S
Er69     V1    9.769   1_556     S
Er69     V40    9.769   1_556     S
Er69     V13    9.769   1_556     S
Er69     V31    9.769   1_556     S
Er69     Er72    12.63   .     S
Er69     Er60    12.63   1_455     S
Er69     Er78    12.63   .     S
Er69     Er81    12.63   .     S
Er70     Er72    13.002   1_554     S
Er70     Er71    13.002   .     S
Er70     Er64    12.63   1_565     S
Er70     Er61    12.63   1_455     S
Er70     Er79    12.63   .     S
Er70     Er58    12.63   1_455     S
Er70     Er73    12.63   1_565     S
Er71     Er72    13.002   .     S
Er71     Er65    12.63   1_565     S
Er71     Er62    12.63   1_455     S
Er71     Er80    12.63   .     S
Er71     Er59    12.63   1_455     S
Er71     Er74    12.63   1_565     S
Er72     Er70    13.002   1_556     S
Er72     V13    9.769   1_556     S
Er72     V31    9.769   1_556     S
Er72     V4    9.769   1_556     S
Er72     V43    9.769   1_556     S
Er72     V16    9.769   1_556     S
Er72     V34    9.769   1_556     S
Er72     Er66    12.63   1_565     S
Er72     Er63    12.63   1_455     S
Er72     Er81    12.63   .     S
Er72     Er60    12.63   1_455     S
Er72     Er75    12.63   1_565     S
Er73     Er75    13.002   1_554     S
Er73     Er74    13.002   .     S
Er73     V26    9.769   1_545     S
Er73     V44    9.769   1_545     S
Er73     V17    9.769   1_545     S
Er73     V25    9.769   1_545     S
Er73     V43    9.769   1_545     S
Er73     V16    9.769   1_545     S
Er73     Er76    12.63   .     S
Er73     Er79    12.63   1_545     S
Er73     Er55    12.63   1_655     S
Er73     Er70    12.63   1_545     S
Er74     Er75    13.002   .     S
Er74     V27    9.769   1_545     S
Er74     V45    9.769   1_545     S
Er74     V18    9.769   1_545     S
Er74     V26    9.769   1_545     S
Er74     V44    9.769   1_545     S
Er74     V17    9.769   1_545     S
Er74     Er77    12.63   .     S
Er74     Er80    12.63   1_545     S
Er74     Er56    12.63   1_655     S
Er74     Er71    12.63   1_545     S
Er75     Er73    13.002   1_556     S
Er75     V25    9.769   1_546     S
Er75     V43    9.769   1_546     S
Er75     V16    9.769   1_546     S
Er75     V46    9.769   1_556     S
Er75     V19    9.769   1_556     S
Er75     V37    9.769   1_556     S
Er75     V27    9.769   1_545     S
Er75     V45    9.769   1_545     S
Er75     V18    9.769   1_545     S
Er75     Er78    12.63   .     S
Er75     Er81    12.63   1_545     S
Er75     Er57    12.63   1_655     S
Er75     Er72    12.63   1_545     S
Er76     Er78    13.002   1_554     S
Er76     Er77    13.002   .     S
Er76     Er79    12.63   .     S
Er77     Er78    13.002   .     S
Er77     Er80    12.63   .     S
Er78     Er76    13.002   1_556     S
Er78     V19    9.769   1_556     S
Er78     V37    9.769   1_556     S
Er78     V10    9.769   1_556     S
Er78     V49    9.769   1_556     S
Er78     V22    9.769   1_556     S
Er78     V40    9.769   1_556     S
Er78     Er81    12.63   .     S
Er79     Er81    13.002   1_554     S
Er79     Er80    13.002   .     S
Er79     Er73    12.63   1_565     S
Er79     Er55    12.63   1_665     S
Er80     Er81    13.002   .     S
Er80     Er74    12.63   1_565     S
Er80     Er56    12.63   1_665     S
Er81     Er79    13.002   1_556     S
Er81     V22    9.769   1_556     S
Er81     V40    9.769   1_556     S
Er81     V13    9.769   1_556     S
Er81     V52    9.769   1_556     S
Er81     V25    9.769   1_556     S
Er81     V43    9.769   1_556     S
Er81     Er75    12.63   1_565     S
Er81     Er57    12.63   1_665     S
