data_alc
_audit_creation_date              2019-12-31
_audit_creation_method            'Pymatgen'
_symmetry_space_group_name_H-M    'P1'
_symmetry_Int_Tables_number       1
loop_
_symmetry_equiv_pos_as_xyz
  x,y,z
_cell_length_a                    25.0023
_cell_length_b                    25.0023
_cell_length_c                    25.8152
_cell_angle_alpha                 90.0
_cell_angle_beta                 90.0
_cell_angle_gamma                 120.0
loop_
_atom_site_label
_atom_site_type_symbol
_atom_site_fract_x
_atom_site_fract_y
_atom_site_fract_z
Er1     Er     0.0   0.0   0.25
Er2     Er     0.0   0.0   0.75
V3     V     0.6667   0.3333   0.0
V4     V     0.6667   0.3333   0.5
Ti5     Ti     1.0   0.4   0.25
Ti6     Ti     1.0   0.4   0.75
V7     V     0.3333   0.6667   0.0
V8     V     0.3333   0.6667   0.5
Ti9     Ti     0.4   0.0   0.25
Ti10     Ti     0.4   0.0   0.75
Ti11     Ti     0.6   0.0   0.25
Ti12     Ti     0.6   0.0   0.75
Ti13     Ti     0.4   0.4   0.25
Ti14     Ti     0.4   0.4   0.75
Ti15     Ti     0.6   0.6   0.25
Ti16     Ti     0.6   0.6   0.75
Ti17     Ti     1.0   0.6   0.25
Ti18     Ti     1.0   0.6   0.75
loop_
_geom_bond_atom_site_label_1
_geom_bond_atom_site_label_2
_geom_bond_distance
_geom_bond_site_symmetry_2
_ccdc_geom_bond_type
Er1     Ti9    10.0   .     S
Er1     Ti13    10.0   .     S
Er1     Ti11    10.0   1_455     S
Er1     Ti15    10.0   1_445     S
Er1     Ti5    10.0   1_455     S
Er1     Ti17    10.0   1_445     S
Er2     Ti10    10.0   .     S
Er2     Ti14    10.0   .     S
Er2     Ti12    10.0   1_455     S
Er2     Ti16    10.0   1_445     S
Er2     Ti6    10.0   1_455     S
Er2     Ti18    10.0   1_445     S
V3     Ti6    10.0   1_554     S
V3     Ti18    10.0   1_554     S
V3     Ti11    10.0   .     S
V3     Ti9    10.0   .     S
V3     Ti17    10.0   .     S
V3     Ti5    10.0   .     S
V3     Ti10    10.0   1_554     S
V3     Ti12    10.0   1_554     S
V3     Ti16    10.0   1_554     S
V3     Ti14    10.0   1_554     S
V3     Ti13    10.0   .     S
V3     Ti15    10.0   .     S
V4     Ti5    10.0   .     S
V4     Ti17    10.0   .     S
V4     Ti12    10.0   .     S
V4     Ti10    10.0   .     S
V4     Ti18    10.0   .     S
V4     Ti6    10.0   .     S
V4     Ti9    10.0   .     S
V4     Ti11    10.0   .     S
V4     Ti15    10.0   .     S
V4     Ti13    10.0   .     S
V4     Ti14    10.0   .     S
V4     Ti16    10.0   .     S
Ti5     Er1    10.0   1_655     S
Ti5     V7    10.0   1_655     S
Ti5     V8    10.0   1_655     S
Ti6     Er2    10.0   1_655     S
Ti6     V3    10.0   1_556     S
Ti6     V8    10.0   1_655     S
Ti6     V7    10.0   1_656     S
V7     Ti12    10.0   1_564     S
V7     Ti10    10.0   1_564     S
V7     Ti5    10.0   1_455     S
V7     Ti17    10.0   1_455     S
V7     Ti18    10.0   1_454     S
V7     Ti6    10.0   1_454     S
V7     Ti9    10.0   1_565     S
V7     Ti11    10.0   1_565     S
V7     Ti14    10.0   1_554     S
V7     Ti16    10.0   1_554     S
V7     Ti15    10.0   .     S
V7     Ti13    10.0   .     S
V8     Ti11    10.0   1_565     S
V8     Ti9    10.0   1_565     S
V8     Ti6    10.0   1_455     S
V8     Ti18    10.0   1_455     S
V8     Ti17    10.0   1_455     S
V8     Ti5    10.0   1_455     S
V8     Ti10    10.0   1_565     S
V8     Ti12    10.0   1_565     S
V8     Ti13    10.0   .     S
V8     Ti15    10.0   .     S
V8     Ti16    10.0   .     S
V8     Ti14    10.0   .     S
Ti9     V8    10.0   1_545     S
Ti9     V7    10.0   1_545     S
Ti10     V3    10.0   1_556     S
Ti10     V7    10.0   1_546     S
Ti10     V8    10.0   1_545     S
Ti11     Er1    10.0   1_655     S
Ti11     V8    10.0   1_545     S
Ti11     V7    10.0   1_545     S
Ti12     Er2    10.0   1_655     S
Ti12     V3    10.0   1_556     S
Ti12     V7    10.0   1_546     S
Ti12     V8    10.0   1_545     S
Ti14     V3    10.0   1_556     S
Ti14     V7    10.0   1_556     S
Ti15     Er1    10.0   1_665     S
Ti16     Er2    10.0   1_665     S
Ti16     V3    10.0   1_556     S
Ti16     V7    10.0   1_556     S
Ti17     Er1    10.0   1_665     S
Ti17     V7    10.0   1_655     S
Ti17     V8    10.0   1_655     S
Ti18     Er2    10.0   1_665     S
Ti18     V3    10.0   1_556     S
Ti18     V8    10.0   1_655     S
Ti18     V7    10.0   1_656     S
