data_anh
_audit_creation_date              2019-12-31
_audit_creation_method            'Pymatgen'
_symmetry_space_group_name_H-M    'P1'
_symmetry_Int_Tables_number       1
loop_
_symmetry_equiv_pos_as_xyz
  x,y,z
_cell_length_a                    37.7298
_cell_length_b                    37.7298
_cell_length_c                    39.9629
_cell_angle_alpha                 90.0
_cell_angle_beta                 90.0
_cell_angle_gamma                 120.0
loop_
_atom_site_label
_atom_site_type_symbol
_atom_site_fract_x
_atom_site_fract_y
_atom_site_fract_z
Er1     Er     1.0   0.25   0.9164
Er2     Er     1.0   0.75   0.9164
Er3     Er     0.5   0.25   0.9164
Er4     Er     0.5   0.75   0.9164
Er5     Er     0.25   0.25   0.0836
Er6     Er     0.25   0.75   0.0836
Er7     Er     0.75   0.25   0.0836
Er8     Er     0.75   0.75   0.0836
V9     V     0.25   0.25   0.8333
V10     V     0.25   0.75   0.8333
V11     V     0.75   0.25   0.8333
V12     V     0.75   0.75   0.8333
Er13     Er     0.25   0.0   0.2498
Er14     Er     0.25   0.5   0.2498
Er15     Er     0.75   0.0   0.2498
Er16     Er     0.75   0.5   0.2498
V17     V     1.0   0.25   0.1667
V18     V     1.0   0.75   0.1667
V19     V     0.5   0.25   0.1667
V20     V     0.5   0.75   0.1667
Er21     Er     1.0   0.25   0.4169
Er22     Er     1.0   0.75   0.4169
Er23     Er     0.5   0.25   0.4169
Er24     Er     0.5   0.75   0.4169
Er25     Er     0.25   0.25   0.5831
Er26     Er     0.25   0.75   0.5831
Er27     Er     0.75   0.25   0.5831
Er28     Er     0.75   0.75   0.5831
Er29     Er     0.25   0.0   0.7502
Er30     Er     0.25   0.5   0.7502
Er31     Er     0.75   0.0   0.7502
Er32     Er     0.75   0.5   0.7502
V33     V     0.25   0.0   0.5
V34     V     0.25   0.5   0.5
V35     V     0.75   0.0   0.5
V36     V     0.75   0.5   0.5
loop_
_geom_bond_atom_site_label_1
_geom_bond_atom_site_label_2
_geom_bond_distance
_geom_bond_site_symmetry_2
_ccdc_geom_bond_type
Er1     V17    10.0   1_556     S
Er1     V11    10.0   .     S
Er1     V9    10.0   1_655     S
Er2     V18    10.0   1_556     S
Er2     V12    10.0   .     S
Er2     V10    10.0   1_655     S
Er3     V19    10.0   1_556     S
Er3     V9    10.0   .     S
Er3     V11    10.0   .     S
Er4     V20    10.0   1_556     S
Er4     V10    10.0   .     S
Er4     V12    10.0   .     S
Er5     V9    10.0   1_554     S
Er5     V17    10.0   1_455     S
Er5     V19    10.0   .     S
Er6     V10    10.0   1_554     S
Er6     V18    10.0   1_455     S
Er6     V20    10.0   .     S
Er7     V11    10.0   1_554     S
Er7     V19    10.0   .     S
Er7     V17    10.0   .     S
Er8     V12    10.0   1_554     S
Er8     V20    10.0   .     S
Er8     V18    10.0   .     S
V9     Er5    10.0   1_556     S
V9     Er1    10.0   1_455     S
V9     Er30    10.0   .     S
V9     Er29    10.0   .     S
V9     Er25    10.0   .     S
V10     Er6    10.0   1_556     S
V10     Er2    10.0   1_455     S
V10     Er29    10.0   1_565     S
V10     Er30    10.0   .     S
V10     Er26    10.0   .     S
V11     Er7    10.0   1_556     S
V11     Er32    10.0   .     S
V11     Er31    10.0   .     S
V11     Er27    10.0   .     S
V12     Er8    10.0   1_556     S
V12     Er31    10.0   1_565     S
V12     Er32    10.0   .     S
V12     Er28    10.0   .     S
Er13     V33    10.0   .     S
Er13     V18    10.0   1_445     S
Er13     V19    10.0   .     S
Er14     V34    10.0   .     S
Er14     V17    10.0   1_455     S
Er14     V20    10.0   .     S
Er15     V35    10.0   .     S
Er15     V20    10.0   1_545     S
Er15     V17    10.0   .     S
Er16     V36    10.0   .     S
Er16     V19    10.0   .     S
Er16     V18    10.0   .     S
V17     Er1    10.0   1_554     S
V17     Er21    10.0   .     S
V17     Er14    10.0   1_655     S
V17     Er5    10.0   1_655     S
V18     Er2    10.0   1_554     S
V18     Er22    10.0   .     S
V18     Er13    10.0   1_665     S
V18     Er6    10.0   1_655     S
V19     Er3    10.0   1_554     S
V19     Er23    10.0   .     S
V20     Er4    10.0   1_554     S
V20     Er24    10.0   .     S
V20     Er15    10.0   1_565     S
Er21     V35    10.0   .     S
Er21     V34    10.0   1_655     S
Er22     V36    10.0   .     S
Er22     V33    10.0   1_665     S
Er23     V33    10.0   .     S
Er23     V36    10.0   .     S
Er24     V34    10.0   .     S
Er24     V35    10.0   1_565     S
Er25     V34    10.0   .     S
Er25     V33    10.0   .     S
Er26     V33    10.0   1_565     S
Er26     V34    10.0   .     S
Er27     V36    10.0   .     S
Er27     V35    10.0   .     S
Er28     V35    10.0   1_565     S
Er28     V36    10.0   .     S
Er29     V10    10.0   1_545     S
Er29     V33    10.0   .     S
Er30     V34    10.0   .     S
Er31     V12    10.0   1_545     S
Er31     V35    10.0   .     S
Er32     V36    10.0   .     S
V33     Er26    10.0   1_545     S
V33     Er22    10.0   1_445     S
V34     Er21    10.0   1_455     S
V35     Er28    10.0   1_545     S
V35     Er24    10.0   1_545     S
