data_ant
_audit_creation_date              2019-12-31
_audit_creation_method            'Pymatgen'
_symmetry_space_group_name_H-M    'P1'
_symmetry_Int_Tables_number       1
loop_
_symmetry_equiv_pos_as_xyz
  x,y,z
_cell_length_a                    37.7232
_cell_length_b                    37.7232
_cell_length_c                    53.3027
_cell_angle_alpha                 90.0
_cell_angle_beta                 90.0
_cell_angle_gamma                 90.0
loop_
_atom_site_label
_atom_site_type_symbol
_atom_site_fract_x
_atom_site_fract_y
_atom_site_fract_z
V1     V     0.25   0.375   0.5626
V2     V     0.25   0.875   0.5626
V3     V     0.75   0.375   0.5626
V4     V     0.75   0.875   0.5626
Er5     Er     0.25   0.125   0.625
Er6     Er     0.25   0.625   0.625
Er7     Er     0.75   0.125   0.625
Er8     Er     0.75   0.625   0.625
V9     V     0.0   0.125   0.6874
V10     V     0.0   0.625   0.6874
V11     V     0.5   0.125   0.6874
V12     V     0.5   0.625   0.6874
V13     V     0.0   0.375   0.9374
V14     V     0.0   0.875   0.9374
V15     V     0.5   0.375   0.9374
V16     V     0.5   0.875   0.9374
Er17     Er     0.0   0.125   0.875
Er18     Er     0.0   0.625   0.875
Er19     Er     0.5   0.125   0.875
Er20     Er     0.5   0.625   0.875
V21     V     0.25   0.125   0.8126
V22     V     0.25   0.625   0.8126
V23     V     0.75   0.125   0.8126
V24     V     0.75   0.625   0.8126
V25     V     0.25   0.375   0.1874
V26     V     0.25   0.875   0.1874
V27     V     0.75   0.375   0.1874
V28     V     0.75   0.875   0.1874
Er29     Er     0.0   0.375   0.125
Er30     Er     0.0   0.875   0.125
Er31     Er     0.5   0.375   0.125
Er32     Er     0.5   0.875   0.125
V33     V     0.0   0.125   0.0626
V34     V     0.0   0.625   0.0626
V35     V     0.5   0.125   0.0626
V36     V     0.5   0.625   0.0626
V37     V     0.0   0.375   0.3126
V38     V     0.0   0.875   0.3126
V39     V     0.5   0.375   0.3126
V40     V     0.5   0.875   0.3126
Er41     Er     0.25   0.375   0.375
Er42     Er     0.25   0.875   0.375
Er43     Er     0.75   0.375   0.375
Er44     Er     0.75   0.875   0.375
V45     V     0.25   0.125   0.4374
V46     V     0.25   0.625   0.4374
V47     V     0.75   0.125   0.4374
V48     V     0.75   0.625   0.4374
loop_
_geom_bond_atom_site_label_1
_geom_bond_atom_site_label_2
_geom_bond_distance
_geom_bond_site_symmetry_2
_ccdc_geom_bond_type
V1     Er6    10.0   .     S
V1     Er5    10.0   .     S
V1     Er41    10.0   .     S
V2     Er5    10.0   1_565     S
V2     Er6    10.0   .     S
V2     Er42    10.0   .     S
V3     Er8    10.0   .     S
V3     Er7    10.0   .     S
V3     Er43    10.0   .     S
V4     Er7    10.0   1_565     S
V4     Er8    10.0   .     S
V4     Er44    10.0   .     S
Er5     V2    10.0   1_545     S
Er5     V21    10.0   .     S
Er5     V45    10.0   .     S
Er5     V11    10.0   .     S
Er5     V9    10.0   .     S
Er6     V22    10.0   .     S
Er6     V46    10.0   .     S
Er6     V12    10.0   .     S
Er6     V10    10.0   .     S
Er7     V4    10.0   1_545     S
Er7     V23    10.0   .     S
Er7     V47    10.0   .     S
Er7     V9    10.0   1_655     S
Er7     V11    10.0   .     S
Er8     V24    10.0   .     S
Er8     V48    10.0   .     S
Er8     V10    10.0   1_655     S
Er8     V12    10.0   .     S
V9     Er7    10.0   1_455     S
V9     Er17    10.0   .     S
V10     Er8    10.0   1_455     S
V10     Er18    10.0   .     S
V11     Er19    10.0   .     S
V12     Er20    10.0   .     S
V13     Er18    10.0   .     S
V13     Er17    10.0   .     S
V13     Er29    10.0   1_556     S
V14     Er17    10.0   1_565     S
V14     Er18    10.0   .     S
V14     Er30    10.0   1_556     S
V15     Er20    10.0   .     S
V15     Er19    10.0   .     S
V15     Er31    10.0   1_556     S
V16     Er19    10.0   1_565     S
V16     Er20    10.0   .     S
V16     Er32    10.0   1_556     S
Er17     V14    10.0   1_545     S
Er17     V33    10.0   1_556     S
Er17     V21    10.0   .     S
Er17     V23    10.0   1_455     S
Er18     V34    10.0   1_556     S
Er18     V22    10.0   .     S
Er18     V24    10.0   1_455     S
Er19     V16    10.0   1_545     S
Er19     V35    10.0   1_556     S
Er19     V23    10.0   .     S
Er19     V21    10.0   .     S
Er20     V36    10.0   1_556     S
Er20     V24    10.0   .     S
Er20     V22    10.0   .     S
V23     Er17    10.0   1_655     S
V24     Er18    10.0   1_655     S
V25     Er29    10.0   .     S
V25     Er31    10.0   .     S
V25     Er41    10.0   .     S
V26     Er30    10.0   .     S
V26     Er32    10.0   .     S
V26     Er42    10.0   .     S
V27     Er31    10.0   .     S
V27     Er29    10.0   1_655     S
V27     Er43    10.0   .     S
V28     Er32    10.0   .     S
V28     Er30    10.0   1_655     S
V28     Er44    10.0   .     S
Er29     V27    10.0   1_455     S
Er29     V37    10.0   .     S
Er29     V13    10.0   1_554     S
Er29     V33    10.0   .     S
Er29     V34    10.0   .     S
Er30     V28    10.0   1_455     S
Er30     V38    10.0   .     S
Er30     V14    10.0   1_554     S
Er30     V34    10.0   .     S
Er30     V33    10.0   1_565     S
Er31     V39    10.0   .     S
Er31     V15    10.0   1_554     S
Er31     V35    10.0   .     S
Er31     V36    10.0   .     S
Er32     V40    10.0   .     S
Er32     V16    10.0   1_554     S
Er32     V36    10.0   .     S
Er32     V35    10.0   1_565     S
V33     Er17    10.0   1_554     S
V33     Er30    10.0   1_545     S
V34     Er18    10.0   1_554     S
V35     Er19    10.0   1_554     S
V35     Er32    10.0   1_545     S
V36     Er20    10.0   1_554     S
V37     Er43    10.0   1_455     S
V37     Er41    10.0   .     S
V38     Er44    10.0   1_455     S
V38     Er42    10.0   .     S
V39     Er41    10.0   .     S
V39     Er43    10.0   .     S
V40     Er42    10.0   .     S
V40     Er44    10.0   .     S
Er41     V46    10.0   .     S
Er41     V45    10.0   .     S
Er42     V45    10.0   1_565     S
Er42     V46    10.0   .     S
Er43     V37    10.0   1_655     S
Er43     V48    10.0   .     S
Er43     V47    10.0   .     S
Er44     V38    10.0   1_655     S
Er44     V47    10.0   1_565     S
Er44     V48    10.0   .     S
V45     Er42    10.0   1_545     S
V47     Er44    10.0   1_545     S
