data_asc
_audit_creation_date              2019-12-31
_audit_creation_method            'Pymatgen'
_symmetry_space_group_name_H-M    'P1'
_symmetry_Int_Tables_number       1
loop_
_symmetry_equiv_pos_as_xyz
  x,y,z
_cell_length_a                    25.5848
_cell_length_b                    25.5848
_cell_length_c                    31.8472
_cell_angle_alpha                 90.0
_cell_angle_beta                 90.0
_cell_angle_gamma                 120.0
loop_
_atom_site_label
_atom_site_type_symbol
_atom_site_fract_x
_atom_site_fract_y
_atom_site_fract_z
V1     V     0.6667   0.3333   0.0
V2     V     0.6667   0.3333   0.5
V3     V     0.3333   0.6667   0.0
V4     V     0.3333   0.6667   0.5
Ti5     Ti     0.7635   0.7635   0.0
Ti6     Ti     0.7635   0.7635   0.5
Ti7     Ti     1.0   0.2365   0.0
Ti8     Ti     1.0   0.2365   0.5
Ti9     Ti     0.2365   0.0   0.0
Ti10     Ti     0.2365   0.0   0.5
Er11     Er     0.0   0.0   0.25
Er12     Er     0.0   0.0   0.75
loop_
_geom_bond_atom_site_label_1
_geom_bond_atom_site_label_2
_geom_bond_distance
_geom_bond_site_symmetry_2
_ccdc_geom_bond_type
V1     Ti7    10.0   .     S
V1     Ti5    10.0   .     S
V1     Ti9    10.0   .     S
V2     Ti8    10.0   .     S
V2     Ti6    10.0   .     S
V2     Ti10    10.0   .     S
V3     Ti5    10.0   .     S
V3     Ti9    10.0   1_565     S
V3     Ti7    10.0   1_455     S
V4     Ti6    10.0   .     S
V4     Ti10    10.0   1_565     S
V4     Ti8    10.0   1_455     S
Ti5     Er11    10.0   1_665     S
Ti5     Er12    10.0   1_664     S
Ti6     Er12    10.0   1_665     S
Ti6     Er11    10.0   1_665     S
Ti7     V3    10.0   1_655     S
Ti7     Er11    10.0   1_655     S
Ti7     Er12    10.0   1_654     S
Ti8     V4    10.0   1_655     S
Ti8     Er12    10.0   1_655     S
Ti8     Er11    10.0   1_655     S
Ti9     V3    10.0   1_545     S
Ti9     Er12    10.0   1_554     S
Ti9     Er11    10.0   .     S
Ti10     V4    10.0   1_545     S
Ti10     Er11    10.0   .     S
Ti10     Er12    10.0   .     S
Er11     Ti5    10.0   1_445     S
Er11     Ti6    10.0   1_445     S
Er11     Ti7    10.0   1_455     S
Er11     Ti8    10.0   1_455     S
Er12     Ti6    10.0   1_445     S
Er12     Ti5    10.0   1_446     S
Er12     Ti8    10.0   1_455     S
Er12     Ti7    10.0   1_456     S
Er12     Ti9    10.0   1_556     S
