data_asd
_audit_creation_date              2019-12-31
_audit_creation_method            'Pymatgen'
_symmetry_space_group_name_H-M    'P1'
_symmetry_Int_Tables_number       1
loop_
_symmetry_equiv_pos_as_xyz
  x,y,z
_cell_length_a                    25.8237
_cell_length_b                    25.8237
_cell_length_c                    34.5274
_cell_angle_alpha                 90.0
_cell_angle_beta                 90.0
_cell_angle_gamma                 90.0
loop_
_atom_site_label
_atom_site_type_symbol
_atom_site_fract_x
_atom_site_fract_y
_atom_site_fract_z
V1     V     0.5   0.0   0.0
V2     V     0.5   0.0   0.5
Er3     Er     0.862   0.862   0.0
Er4     Er     0.862   0.862   0.5
Ti5     Ti     0.0   0.0   0.25
Ti6     Ti     0.0   0.0   0.75
Er7     Er     0.862   0.138   0.0
Er8     Er     0.862   0.138   0.5
Er9     Er     0.138   0.862   0.0
Er10     Er     0.138   0.862   0.5
Er11     Er     0.138   0.138   0.0
Er12     Er     0.138   0.138   0.5
V13     V     0.0   0.5   0.0
V14     V     0.0   0.5   0.5
loop_
_geom_bond_atom_site_label_1
_geom_bond_atom_site_label_2
_geom_bond_distance
_geom_bond_site_symmetry_2
_ccdc_geom_bond_type
V1     Er7    10.004   .     S
V1     Er3    10.004   1_545     S
V1     Er9    10.004   1_545     S
V1     Er11    10.004   .     S
V2     Er8    10.004   .     S
V2     Er4    10.004   1_545     S
V2     Er10    10.004   1_545     S
V2     Er12    10.004   .     S
Er3     V1    10.004   1_565     S
Er3     Ti6    9.996   1_664     S
Er3     Ti5    9.996   1_665     S
Er3     V13    10.004   1_655     S
Er4     V2    10.004   1_565     S
Er4     Ti5    9.996   1_665     S
Er4     Ti6    9.996   1_665     S
Er4     V14    10.004   1_655     S
Ti5     Er10    9.996   1_545     S
Ti5     Er4    9.996   1_445     S
Ti5     Er12    9.996   .     S
Ti5     Er8    9.996   1_455     S
Ti5     Er11    9.996   .     S
Ti5     Er7    9.996   1_455     S
Ti5     Er3    9.996   1_445     S
Ti5     Er9    9.996   1_545     S
Ti6     Er9    9.996   1_546     S
Ti6     Er3    9.996   1_446     S
Ti6     Er11    9.996   1_556     S
Ti6     Er7    9.996   1_456     S
Ti6     Er12    9.996   .     S
Ti6     Er8    9.996   1_455     S
Ti6     Er4    9.996   1_445     S
Ti6     Er10    9.996   1_545     S
Er7     Ti6    9.996   1_654     S
Er7     Ti5    9.996   1_655     S
Er7     V13    10.004   1_655     S
Er8     Ti5    9.996   1_655     S
Er8     Ti6    9.996   1_655     S
Er8     V14    10.004   1_655     S
Er9     V1    10.004   1_565     S
Er9     Ti6    9.996   1_564     S
Er9     Ti5    9.996   1_565     S
Er9     V13    10.004   .     S
Er10     V2    10.004   1_565     S
Er10     Ti5    9.996   1_565     S
Er10     Ti6    9.996   1_565     S
Er10     V14    10.004   .     S
Er11     Ti6    9.996   1_554     S
Er11     V13    10.004   .     S
Er12     V14    10.004   .     S
V13     Er7    10.004   1_455     S
V13     Er3    10.004   1_455     S
V14     Er8    10.004   1_455     S
V14     Er4    10.004   1_455     S
