data_ase
_audit_creation_date              2019-12-31
_audit_creation_method            'Pymatgen'
_symmetry_space_group_name_H-M    'P1'
_symmetry_Int_Tables_number       1
loop_
_symmetry_equiv_pos_as_xyz
  x,y,z
_cell_length_a                    29.563
_cell_length_b                    29.563
_cell_length_c                    31.8056
_cell_angle_alpha                 90.0
_cell_angle_beta                 90.0
_cell_angle_gamma                 120.0
loop_
_atom_site_label
_atom_site_type_symbol
_atom_site_fract_x
_atom_site_fract_y
_atom_site_fract_z
Er1     Er     0.5   0.5   0.0
Er2     Er     0.5   0.5   0.5
V3     V     0.1186   0.2371   0.0
V4     V     0.1186   0.2371   0.5
V5     V     0.8814   0.7629   0.0
V6     V     0.8814   0.7629   0.5
V7     V     0.8814   0.1186   0.0
V8     V     0.8814   0.1186   0.5
Er9     Er     0.5   0.0   0.0
Er10     Er     0.5   0.0   0.5
V11     V     0.1186   0.8814   0.0
V12     V     0.1186   0.8814   0.5
Er13     Er     0.0   0.5   0.0
Er14     Er     0.0   0.5   0.5
V15     V     0.2371   0.1186   0.0
V16     V     0.2371   0.1186   0.5
V17     V     0.7629   0.8814   0.0
V18     V     0.7629   0.8814   0.5
Ti19     Ti     0.0   0.0   0.25
Ti20     Ti     0.0   0.0   0.75
loop_
_geom_bond_atom_site_label_1
_geom_bond_atom_site_label_2
_geom_bond_distance
_geom_bond_site_symmetry_2
_ccdc_geom_bond_type
Er1     V15    9.996   .     S
Er1     V3    9.996   .     S
Er1     V17    9.996   .     S
Er1     V5    9.996   .     S
Er2     V16    9.996   .     S
Er2     V4    9.996   .     S
Er2     V18    9.996   .     S
Er2     V6    9.996   .     S
V3     Ti20    10.004   1_554     S
V3     Ti19    10.004   .     S
V3     Er13    9.996   .     S
V4     Ti19    10.004   .     S
V4     Ti20    10.004   .     S
V4     Er14    9.996   .     S
V5     Ti20    10.004   1_664     S
V5     Ti19    10.004   1_665     S
V5     Er13    9.996   1_655     S
V6     Ti19    10.004   1_665     S
V6     Ti20    10.004   1_665     S
V6     Er14    9.996   1_655     S
V7     Ti20    10.004   1_654     S
V7     Ti19    10.004   1_655     S
V7     Er9    9.996   .     S
V7     Er13    9.996   1_655     S
V8     Ti19    10.004   1_655     S
V8     Ti20    10.004   1_655     S
V8     Er10    9.996   .     S
V8     Er14    9.996   1_655     S
Er9     V11    9.996   1_545     S
Er9     V15    9.996   .     S
Er9     V17    9.996   1_545     S
Er10     V12    9.996   1_545     S
Er10     V16    9.996   .     S
Er10     V18    9.996   1_545     S
V11     Ti20    10.004   1_564     S
V11     Ti19    10.004   1_565     S
V11     Er9    9.996   1_565     S
V11     Er13    9.996   .     S
V12     Ti19    10.004   1_565     S
V12     Ti20    10.004   1_565     S
V12     Er10    9.996   1_565     S
V12     Er14    9.996   .     S
Er13     V7    9.996   1_455     S
Er13     V5    9.996   1_455     S
Er14     V8    9.996   1_455     S
Er14     V6    9.996   1_455     S
V15     Ti20    10.004   1_554     S
V15     Ti19    10.004   .     S
V16     Ti19    10.004   .     S
V16     Ti20    10.004   .     S
V17     Ti20    10.004   1_664     S
V17     Ti19    10.004   1_665     S
V17     Er9    9.996   1_565     S
V18     Ti19    10.004   1_665     S
V18     Ti20    10.004   1_665     S
V18     Er10    9.996   1_565     S
Ti19     V12    10.004   1_545     S
Ti19     V8    10.004   1_455     S
Ti19     V18    10.004   1_445     S
Ti19     V6    10.004   1_445     S
Ti19     V11    10.004   1_545     S
Ti19     V7    10.004   1_455     S
Ti19     V17    10.004   1_445     S
Ti19     V5    10.004   1_445     S
Ti20     V11    10.004   1_546     S
Ti20     V15    10.004   1_556     S
Ti20     V3    10.004   1_556     S
Ti20     V7    10.004   1_456     S
Ti20     V17    10.004   1_446     S
Ti20     V5    10.004   1_446     S
Ti20     V12    10.004   1_545     S
Ti20     V8    10.004   1_455     S
Ti20     V18    10.004   1_445     S
Ti20     V6    10.004   1_445     S
