data_atn-e
_audit_creation_date              2019-12-31
_audit_creation_method            'Pymatgen'
_symmetry_space_group_name_H-M    'P1'
_symmetry_Int_Tables_number       1
loop_
_symmetry_equiv_pos_as_xyz
  x,y,z
_cell_length_a                    50.3124
_cell_length_b                    50.3124
_cell_length_c                    40.0002
_cell_angle_alpha                 90.0
_cell_angle_beta                 90.0
_cell_angle_gamma                 90.0
loop_
_atom_site_label
_atom_site_type_symbol
_atom_site_fract_x
_atom_site_fract_y
_atom_site_fract_z
Er1     Er     0.0   0.2696   0.25
Er2     Er     0.0   0.2696   0.75
Er3     Er     0.2696   0.0   0.25
Er4     Er     0.2696   0.0   0.75
Ti5     Ti     0.3455   0.1545   0.375
Ti6     Ti     0.3455   0.1545   0.875
V7     V     0.1745   0.1745   0.25
V8     V     0.1745   0.1745   0.75
Ti9     Ti     0.1545   0.3455   0.375
Ti10     Ti     0.1545   0.3455   0.875
V11     V     0.3255   0.3255   0.0
V12     V     0.3255   0.3255   0.5
Ti13     Ti     0.1545   0.3455   0.125
Ti14     Ti     0.1545   0.3455   0.625
Ti15     Ti     0.3455   0.1545   0.125
Ti16     Ti     0.3455   0.1545   0.625
Er17     Er     0.7304   0.0   0.25
Er18     Er     0.7304   0.0   0.75
Er19     Er     0.5   0.2304   0.0
Er20     Er     0.5   0.2304   0.5
V21     V     0.6745   0.3255   0.0
V22     V     0.6745   0.3255   0.5
Ti23     Ti     0.8455   0.3455   0.125
Ti24     Ti     0.8455   0.3455   0.625
Ti25     Ti     0.8455   0.3455   0.375
Ti26     Ti     0.8455   0.3455   0.875
V27     V     0.8255   0.1745   0.25
V28     V     0.8255   0.1745   0.75
Ti29     Ti     0.6545   0.1545   0.125
Ti30     Ti     0.6545   0.1545   0.625
Ti31     Ti     0.6545   0.1545   0.375
Ti32     Ti     0.6545   0.1545   0.875
Er33     Er     0.5   0.7696   0.0
Er34     Er     0.5   0.7696   0.5
V35     V     0.8255   0.8255   0.25
V36     V     0.8255   0.8255   0.75
V37     V     0.6745   0.6745   0.0
V38     V     0.6745   0.6745   0.5
Ti39     Ti     0.8455   0.6545   0.125
Ti40     Ti     0.8455   0.6545   0.625
Ti41     Ti     0.6545   0.8455   0.125
Ti42     Ti     0.6545   0.8455   0.625
Ti43     Ti     0.6545   0.8455   0.375
Ti44     Ti     0.6545   0.8455   0.875
Ti45     Ti     0.8455   0.6545   0.375
Ti46     Ti     0.8455   0.6545   0.875
Er47     Er     0.7696   0.5   0.0
Er48     Er     0.7696   0.5   0.5
Er49     Er     0.0   0.7304   0.25
Er50     Er     0.0   0.7304   0.75
Er51     Er     0.2304   0.5   0.0
Er52     Er     0.2304   0.5   0.5
V53     V     0.3255   0.6745   0.0
V54     V     0.3255   0.6745   0.5
Ti55     Ti     0.3455   0.8455   0.125
Ti56     Ti     0.3455   0.8455   0.625
Ti57     Ti     0.3455   0.8455   0.375
Ti58     Ti     0.3455   0.8455   0.875
V59     V     0.1745   0.8255   0.25
V60     V     0.1745   0.8255   0.75
Ti61     Ti     0.1545   0.6545   0.125
Ti62     Ti     0.1545   0.6545   0.625
Ti63     Ti     0.1545   0.6545   0.375
Ti64     Ti     0.1545   0.6545   0.875
loop_
_geom_bond_atom_site_label_1
_geom_bond_atom_site_label_2
_geom_bond_distance
_geom_bond_site_symmetry_2
_ccdc_geom_bond_type
Er1     V27    10.0   1_455     S
Er1     V7    10.0   .     S
Er1     Ti25    10.0   1_455     S
Er1     Ti13    10.0   .     S
Er1     Ti23    10.0   1_455     S
Er1     Ti9    10.0   .     S
Er2     V28    10.0   1_455     S
Er2     V8    10.0   .     S
Er2     Ti26    10.0   1_455     S
Er2     Ti14    10.0   .     S
Er2     Ti24    10.0   1_455     S
Er2     Ti10    10.0   .     S
Er3     V59    10.0   1_545     S
Er3     V7    10.0   .     S
Er3     Ti5    10.0   .     S
Er3     Ti55    10.0   1_545     S
Er3     Ti15    10.0   .     S
Er3     Ti57    10.0   1_545     S
Er4     V60    10.0   1_545     S
Er4     V8    10.0   .     S
Er4     Ti6    10.0   .     S
Er4     Ti56    10.0   1_545     S
Er4     Ti16    10.0   .     S
Er4     Ti58    10.0   1_545     S
Ti5     V7    10.0   .     S
Ti5     V12    10.0   .     S
Ti5     Ti16    10.0   .     S
Ti5     Ti15    10.0   .     S
Ti5     Er20    10.0   .     S
Ti6     V8    10.0   .     S
Ti6     V11    10.0   1_556     S
Ti6     Ti15    10.0   1_556     S
Ti6     Ti16    10.0   .     S
Ti6     Er19    10.0   1_556     S
V7     Ti13    10.0   .     S
V7     Ti15    10.0   .     S
V7     Ti9    10.0   .     S
V8     Ti14    10.0   .     S
V8     Ti16    10.0   .     S
V8     Ti10    10.0   .     S
Ti9     V12    10.0   .     S
Ti9     Ti14    10.0   .     S
Ti9     Ti13    10.0   .     S
Ti9     Er52    10.0   .     S
Ti10     V11    10.0   1_556     S
Ti10     Ti13    10.0   1_556     S
Ti10     Ti14    10.0   .     S
Ti10     Er51    10.0   1_556     S
V11     Ti13    10.0   .     S
V11     Ti6    10.0   1_554     S
V11     Ti10    10.0   1_554     S
V11     Ti15    10.0   .     S
V11     Er19    10.0   .     S
V11     Er51    10.0   .     S
V12     Ti14    10.0   .     S
V12     Ti16    10.0   .     S
V12     Er20    10.0   .     S
V12     Er52    10.0   .     S
Ti13     Ti10    10.0   1_554     S
Ti13     Er51    10.0   .     S
Ti14     Er52    10.0   .     S
Ti15     Ti6    10.0   1_554     S
Ti15     Er19    10.0   .     S
Ti16     Er20    10.0   .     S
Er17     V35    10.0   1_545     S
Er17     V27    10.0   .     S
Er17     Ti43    10.0   1_545     S
Er17     Ti29    10.0   .     S
Er17     Ti41    10.0   1_545     S
Er17     Ti31    10.0   .     S
Er18     V36    10.0   1_545     S
Er18     V28    10.0   .     S
Er18     Ti44    10.0   1_545     S
Er18     Ti30    10.0   .     S
Er18     Ti42    10.0   1_545     S
Er18     Ti32    10.0   .     S
Er19     V21    10.0   .     S
Er19     Ti29    10.0   .     S
Er19     Ti6    10.0   1_554     S
Er19     Ti32    10.0   1_554     S
Er20     V22    10.0   .     S
Er20     Ti30    10.0   .     S
Er20     Ti31    10.0   .     S
V21     Ti23    10.0   .     S
V21     Ti26    10.0   1_554     S
V21     Ti29    10.0   .     S
V21     Ti32    10.0   1_554     S
V21     Er47    10.0   .     S
V22     Ti24    10.0   .     S
V22     Ti25    10.0   .     S
V22     Ti30    10.0   .     S
V22     Ti31    10.0   .     S
V22     Er48    10.0   .     S
Ti23     Er1    10.0   1_655     S
Ti23     Ti26    10.0   1_554     S
Ti23     V27    10.0   .     S
Ti23     Ti25    10.0   .     S
Ti23     Er47    10.0   .     S
Ti24     Er2    10.0   1_655     S
Ti24     Ti25    10.0   .     S
Ti24     V28    10.0   .     S
Ti24     Ti26    10.0   .     S
Ti24     Er48    10.0   .     S
Ti25     Er1    10.0   1_655     S
Ti25     V27    10.0   .     S
Ti25     Er48    10.0   .     S
Ti26     Er2    10.0   1_655     S
Ti26     Ti23    10.0   1_556     S
Ti26     V21    10.0   1_556     S
Ti26     V28    10.0   .     S
Ti26     Er47    10.0   1_556     S
V27     Er1    10.0   1_655     S
V27     Ti29    10.0   .     S
V27     Ti31    10.0   .     S
V28     Er2    10.0   1_655     S
V28     Ti30    10.0   .     S
V28     Ti32    10.0   .     S
Ti29     Ti32    10.0   1_554     S
Ti29     Ti31    10.0   .     S
Ti30     Ti31    10.0   .     S
Ti30     Ti32    10.0   .     S
Ti32     Er19    10.0   1_556     S
Ti32     V21    10.0   1_556     S
Ti32     Ti29    10.0   1_556     S
Er33     V37    10.0   .     S
Er33     V53    10.0   .     S
Er33     Ti44    10.0   1_554     S
Er33     Ti55    10.0   .     S
Er33     Ti58    10.0   1_554     S
Er33     Ti41    10.0   .     S
Er34     V38    10.0   .     S
Er34     V54    10.0   .     S
Er34     Ti43    10.0   .     S
Er34     Ti56    10.0   .     S
Er34     Ti57    10.0   .     S
Er34     Ti42    10.0   .     S
V35     Er17    10.0   1_565     S
V35     Ti39    10.0   .     S
V35     Ti43    10.0   .     S
V35     Ti41    10.0   .     S
V35     Ti45    10.0   .     S
V35     Er49    10.0   1_655     S
V36     Er18    10.0   1_565     S
V36     Ti40    10.0   .     S
V36     Ti44    10.0   .     S
V36     Ti42    10.0   .     S
V36     Ti46    10.0   .     S
V36     Er50    10.0   1_655     S
V37     Ti39    10.0   .     S
V37     Ti41    10.0   .     S
V37     Ti44    10.0   1_554     S
V37     Ti46    10.0   1_554     S
V37     Er47    10.0   .     S
V38     Ti40    10.0   .     S
V38     Ti42    10.0   .     S
V38     Ti43    10.0   .     S
V38     Ti45    10.0   .     S
V38     Er48    10.0   .     S
Ti39     Ti46    10.0   1_554     S
Ti39     Ti45    10.0   .     S
Ti39     Er47    10.0   .     S
Ti39     Er49    10.0   1_655     S
Ti40     Ti45    10.0   .     S
Ti40     Ti46    10.0   .     S
Ti40     Er48    10.0   .     S
Ti40     Er50    10.0   1_655     S
Ti41     Er17    10.0   1_565     S
Ti41     Ti44    10.0   1_554     S
Ti41     Ti43    10.0   .     S
Ti42     Er18    10.0   1_565     S
Ti42     Ti43    10.0   .     S
Ti42     Ti44    10.0   .     S
Ti43     Er17    10.0   1_565     S
Ti44     Er18    10.0   1_565     S
Ti44     Er33    10.0   1_556     S
Ti44     V37    10.0   1_556     S
Ti44     Ti41    10.0   1_556     S
Ti45     Er48    10.0   .     S
Ti45     Er49    10.0   1_655     S
Ti46     V37    10.0   1_556     S
Ti46     Ti39    10.0   1_556     S
Ti46     Er47    10.0   1_556     S
Ti46     Er50    10.0   1_655     S
Er47     Ti26    10.0   1_554     S
Er47     Ti46    10.0   1_554     S
Er49     V35    10.0   1_455     S
Er49     V59    10.0   .     S
Er49     Ti63    10.0   .     S
Er49     Ti39    10.0   1_455     S
Er49     Ti61    10.0   .     S
Er49     Ti45    10.0   1_455     S
Er50     V36    10.0   1_455     S
Er50     V60    10.0   .     S
Er50     Ti64    10.0   .     S
Er50     Ti40    10.0   1_455     S
Er50     Ti62    10.0   .     S
Er50     Ti46    10.0   1_455     S
Er51     V53    10.0   .     S
Er51     Ti64    10.0   1_554     S
Er51     Ti10    10.0   1_554     S
Er51     Ti61    10.0   .     S
Er52     V54    10.0   .     S
Er52     Ti63    10.0   .     S
Er52     Ti62    10.0   .     S
V53     Ti55    10.0   .     S
V53     Ti58    10.0   1_554     S
V53     Ti61    10.0   .     S
V53     Ti64    10.0   1_554     S
V54     Ti56    10.0   .     S
V54     Ti57    10.0   .     S
V54     Ti62    10.0   .     S
V54     Ti63    10.0   .     S
Ti55     Er3    10.0   1_565     S
Ti55     Ti58    10.0   1_554     S
Ti55     V59    10.0   .     S
Ti55     Ti57    10.0   .     S
Ti56     Er4    10.0   1_565     S
Ti56     Ti57    10.0   .     S
Ti56     V60    10.0   .     S
Ti56     Ti58    10.0   .     S
Ti57     Er3    10.0   1_565     S
Ti57     V59    10.0   .     S
Ti58     Er4    10.0   1_565     S
Ti58     Er33    10.0   1_556     S
Ti58     Ti55    10.0   1_556     S
Ti58     V53    10.0   1_556     S
Ti58     V60    10.0   .     S
V59     Er3    10.0   1_565     S
V59     Ti63    10.0   .     S
V59     Ti61    10.0   .     S
V60     Er4    10.0   1_565     S
V60     Ti64    10.0   .     S
V60     Ti62    10.0   .     S
Ti61     Ti64    10.0   1_554     S
Ti61     Ti63    10.0   .     S
Ti62     Ti63    10.0   .     S
Ti62     Ti64    10.0   .     S
Ti64     Er51    10.0   1_556     S
Ti64     V53    10.0   1_556     S
Ti64     Ti61    10.0   1_556     S
