data_atn
_audit_creation_date              2019-12-31
_audit_creation_method            'Pymatgen'
_symmetry_space_group_name_H-M    'P1'
_symmetry_Int_Tables_number       1
loop_
_symmetry_equiv_pos_as_xyz
  x,y,z
_cell_length_a                    41.2805
_cell_length_b                    41.2805
_cell_length_c                    34.5304
_cell_angle_alpha                 90.0
_cell_angle_beta                 90.0
_cell_angle_gamma                 90.0
loop_
_atom_site_label
_atom_site_type_symbol
_atom_site_fract_x
_atom_site_fract_y
_atom_site_fract_z
V1     V     0.7076   0.1211   0.25
V2     V     0.7076   0.1211   0.75
V3     V     0.7076   0.8789   0.25
V4     V     0.7076   0.8789   0.75
V5     V     0.3789   0.2076   0.0
V6     V     0.3789   0.2076   0.5
V7     V     0.6211   0.2076   0.0
V8     V     0.6211   0.2076   0.5
V9     V     0.2924   0.1211   0.25
V10     V     0.2924   0.1211   0.75
V11     V     0.2924   0.8789   0.25
V12     V     0.2924   0.8789   0.75
V13     V     0.6211   0.7924   0.0
V14     V     0.6211   0.7924   0.5
V15     V     0.3789   0.7924   0.0
V16     V     0.3789   0.7924   0.5
V17     V     0.7924   0.6211   0.0
V18     V     0.7924   0.6211   0.5
V19     V     0.7924   0.3789   0.0
V20     V     0.7924   0.3789   0.5
V21     V     0.1211   0.7076   0.25
V22     V     0.1211   0.7076   0.75
V23     V     0.8789   0.7076   0.25
V24     V     0.8789   0.7076   0.75
V25     V     0.1211   0.2924   0.25
V26     V     0.1211   0.2924   0.75
V27     V     0.8789   0.2924   0.25
V28     V     0.8789   0.2924   0.75
V29     V     0.2076   0.3789   0.0
V30     V     0.2076   0.3789   0.5
V31     V     0.2076   0.6211   0.0
V32     V     0.2076   0.6211   0.5
loop_
_geom_bond_atom_site_label_1
_geom_bond_atom_site_label_2
_geom_bond_distance
_geom_bond_site_symmetry_2
_ccdc_geom_bond_type
V1     V3    10.0   1_545     S
V1     V7    10.0   .     S
V1     V8    10.0   .     S
V1     V27    10.0   .     S
V2     V4    10.0   1_545     S
V2     V8    10.0   .     S
V2     V7    10.0   1_556     S
V2     V28    10.0   .     S
V3     V1    10.0   1_565     S
V3     V14    10.0   .     S
V3     V13    10.0   .     S
V3     V23    10.0   .     S
V4     V2    10.0   1_565     S
V4     V13    10.0   1_556     S
V4     V14    10.0   .     S
V4     V24    10.0   .     S
V5     V7    10.0   .     S
V5     V10    10.0   1_554     S
V5     V9    10.0   .     S
V5     V29    10.0   .     S
V6     V8    10.0   .     S
V6     V9    10.0   .     S
V6     V10    10.0   .     S
V6     V30    10.0   .     S
V7     V2    10.0   1_554     S
V7     V19    10.0   .     S
V8     V20    10.0   .     S
V9     V11    10.0   1_545     S
V9     V25    10.0   .     S
V10     V12    10.0   1_545     S
V10     V5    10.0   1_556     S
V10     V26    10.0   .     S
V11     V9    10.0   1_565     S
V11     V15    10.0   .     S
V11     V16    10.0   .     S
V11     V21    10.0   .     S
V12     V10    10.0   1_565     S
V12     V16    10.0   .     S
V12     V15    10.0   1_556     S
V12     V22    10.0   .     S
V13     V15    10.0   .     S
V13     V4    10.0   1_554     S
V13     V17    10.0   .     S
V14     V16    10.0   .     S
V14     V18    10.0   .     S
V15     V12    10.0   1_554     S
V15     V31    10.0   .     S
V16     V32    10.0   .     S
V17     V19    10.0   .     S
V17     V23    10.0   .     S
V17     V24    10.0   1_554     S
V18     V20    10.0   .     S
V18     V24    10.0   .     S
V18     V23    10.0   .     S
V19     V28    10.0   1_554     S
V19     V27    10.0   .     S
V20     V27    10.0   .     S
V20     V28    10.0   .     S
V21     V23    10.0   1_455     S
V21     V32    10.0   .     S
V21     V31    10.0   .     S
V22     V24    10.0   1_455     S
V22     V31    10.0   1_556     S
V22     V32    10.0   .     S
V23     V21    10.0   1_655     S
V24     V22    10.0   1_655     S
V24     V17    10.0   1_556     S
V25     V27    10.0   1_455     S
V25     V29    10.0   .     S
V25     V30    10.0   .     S
V26     V28    10.0   1_455     S
V26     V30    10.0   .     S
V26     V29    10.0   1_556     S
V27     V25    10.0   1_655     S
V28     V26    10.0   1_655     S
V28     V19    10.0   1_556     S
V29     V31    10.0   .     S
V29     V26    10.0   1_554     S
V30     V32    10.0   .     S
V31     V22    10.0   1_554     S
