data_ato-e
_audit_creation_date              2019-12-31
_audit_creation_method            'Pymatgen'
_symmetry_space_group_name_H-M    'P1'
_symmetry_Int_Tables_number       1
loop_
_symmetry_equiv_pos_as_xyz
  x,y,z
_cell_length_a                    79.9225
_cell_length_b                    79.9225
_cell_length_c                    38.7948
_cell_angle_alpha                 90.0
_cell_angle_beta                 90.0
_cell_angle_gamma                 120.0
loop_
_atom_site_label
_atom_site_type_symbol
_atom_site_fract_x
_atom_site_fract_y
_atom_site_fract_z
V1     V     0.1172   0.8828   0.106
V2     V     0.1172   0.8828   0.606
V3     V     0.4505   0.5495   0.4393
V4     V     0.4505   0.5495   0.9393
V5     V     0.8828   0.1172   0.394
V6     V     0.8828   0.1172   0.894
V7     V     0.5495   0.4505   0.0607
V8     V     0.5495   0.4505   0.5607
Ce9     Ce     0.2529   0.3333   0.1667
Ce10     Ce     0.2529   0.3333   0.6667
Ti11     Ti     0.3333   0.4388   0.3333
Ti12     Ti     0.3333   0.4388   0.8333
Ti13     Ti     0.2278   0.2278   0.0
Ti14     Ti     0.2278   0.2278   0.5
Ce15     Ce     0.4137   0.4137   0.0
Ce16     Ce     0.4137   0.4137   0.5
Ce17     Ce     0.3333   0.2529   0.3333
Ce18     Ce     0.3333   0.2529   0.8333
Ti19     Ti     0.4388   0.3333   0.1667
Ti20     Ti     0.4388   0.3333   0.6667
Er21     Er     0.1974   0.1974   0.25
Er22     Er     0.1974   0.1974   0.75
Er23     Er     0.4693   0.3333   0.4167
Er24     Er     0.4693   0.3333   0.9167
Er25     Er     0.3333   0.4693   0.0833
Er26     Er     0.3333   0.4693   0.5833
Ce27     Ce     0.6667   0.7471   0.1667
Ce28     Ce     0.6667   0.7471   0.6667
Ce29     Ce     0.5863   0.5863   0.0
Ce30     Ce     0.5863   0.5863   0.5
Ti31     Ti     0.5612   0.6667   0.3333
Ti32     Ti     0.5612   0.6667   0.8333
Ce33     Ce     0.7471   0.6667   0.3333
Ce34     Ce     0.7471   0.6667   0.8333
Ti35     Ti     0.7722   0.7722   0.0
Ti36     Ti     0.7722   0.7722   0.5
Ti37     Ti     0.6667   0.5612   0.1667
Ti38     Ti     0.6667   0.5612   0.6667
Er39     Er     0.8026   0.8026   0.25
Er40     Er     0.8026   0.8026   0.75
Er41     Er     0.5307   0.6667   0.0833
Er42     Er     0.5307   0.6667   0.5833
Er43     Er     0.6667   0.5307   0.4167
Er44     Er     0.6667   0.5307   0.9167
V45     V     0.7839   0.5677   0.2726
V46     V     0.7839   0.5677   0.7726
V47     V     0.4323   0.2161   0.2726
V48     V     0.4323   0.2161   0.7726
V49     V     0.2344   0.1172   0.394
V50     V     0.2344   0.1172   0.894
V51     V     0.8828   0.7656   0.394
V52     V     0.8828   0.7656   0.894
V53     V     0.099   0.5495   0.4393
V54     V     0.099   0.5495   0.9393
V55     V     0.4505   0.901   0.4393
V56     V     0.4505   0.901   0.9393
Ce57     Ce     0.4137   0.0   0.0
Ce58     Ce     0.4137   0.0   0.5
Ce59     Ce     0.3333   0.0804   0.3333
Ce60     Ce     0.3333   0.0804   0.8333
Ti61     Ti     0.4388   0.1055   0.1667
Ti62     Ti     0.4388   0.1055   0.6667
Ce63     Ce     0.2529   0.9196   0.1667
Ce64     Ce     0.2529   0.9196   0.6667
Ti65     Ti     0.2278   0.0   0.0
Ti66     Ti     0.2278   0.0   0.5
Ti67     Ti     0.3333   0.8945   0.3333
Ti68     Ti     0.3333   0.8945   0.8333
Er69     Er     0.4693   0.136   0.4167
Er70     Er     0.4693   0.136   0.9167
Er71     Er     0.1974   0.0   0.25
Er72     Er     0.1974   0.0   0.75
Er73     Er     0.3333   0.864   0.0833
Er74     Er     0.3333   0.864   0.5833
V75     V     0.2161   0.7839   0.2274
V76     V     0.2161   0.7839   0.7274
Ce77     Ce     0.0804   0.7471   0.1667
Ce78     Ce     0.0804   0.7471   0.6667
Ce79     Ce     0.9196   0.6667   0.3333
Ce80     Ce     0.9196   0.6667   0.8333
Ti81     Ti     0.8945   0.5612   0.1667
Ti82     Ti     0.8945   0.5612   0.6667
Ti83     Ti     1.0   0.7722   0.0
Ti84     Ti     1.0   0.7722   0.5
Ce85     Ce     0.0   0.5863   0.0
Ce86     Ce     0.0   0.5863   0.5
Ti87     Ti     0.1055   0.6667   0.3333
Ti88     Ti     0.1055   0.6667   0.8333
Er89     Er     0.0   0.8026   0.25
Er90     Er     0.0   0.8026   0.75
Er91     Er     0.136   0.6667   0.0833
Er92     Er     0.136   0.6667   0.5833
Er93     Er     0.864   0.5307   0.4167
Er94     Er     0.864   0.5307   0.9167
V95     V     0.5677   0.7839   0.2274
V96     V     0.5677   0.7839   0.7274
V97     V     0.2161   0.4323   0.2274
V98     V     0.2161   0.4323   0.7274
V99     V     0.1172   0.2344   0.106
V100     V     0.1172   0.2344   0.606
V101     V     0.5495   0.099   0.0607
V102     V     0.5495   0.099   0.5607
V103     V     0.901   0.4505   0.0607
V104     V     0.901   0.4505   0.5607
V105     V     0.7656   0.8828   0.106
V106     V     0.7656   0.8828   0.606
Ce107     Ce     0.0804   0.3333   0.1667
Ce108     Ce     0.0804   0.3333   0.6667
Ce109     Ce     1.0   0.4137   0.0
Ce110     Ce     1.0   0.4137   0.5
Ti111     Ti     0.1055   0.4388   0.3333
Ti112     Ti     0.1055   0.4388   0.8333
Ti113     Ti     1.0   0.2278   0.0
Ti114     Ti     1.0   0.2278   0.5
Ce115     Ce     0.9196   0.2529   0.3333
Ce116     Ce     0.9196   0.2529   0.8333
Ti117     Ti     0.8945   0.3333   0.1667
Ti118     Ti     0.8945   0.3333   0.6667
Er119     Er     0.0   0.1974   0.25
Er120     Er     0.0   0.1974   0.75
Er121     Er     0.136   0.4693   0.0833
Er122     Er     0.136   0.4693   0.5833
Er123     Er     0.864   0.3333   0.4167
Er124     Er     0.864   0.3333   0.9167
V125     V     0.7839   0.2161   0.2726
V126     V     0.7839   0.2161   0.7726
Ce127     Ce     0.5863   0.0   0.0
Ce128     Ce     0.5863   0.0   0.5
Ti129     Ti     0.6667   0.1055   0.1667
Ti130     Ti     0.6667   0.1055   0.6667
Ce131     Ce     0.7471   0.0804   0.3333
Ce132     Ce     0.7471   0.0804   0.8333
Ce133     Ce     0.6667   0.9196   0.1667
Ce134     Ce     0.6667   0.9196   0.6667
Ti135     Ti     0.5612   0.8945   0.3333
Ti136     Ti     0.5612   0.8945   0.8333
Ti137     Ti     0.7722   0.0   0.0
Ti138     Ti     0.7722   0.0   0.5
Er139     Er     0.8026   0.0   0.25
Er140     Er     0.8026   0.0   0.75
Er141     Er     0.6667   0.136   0.4167
Er142     Er     0.6667   0.136   0.9167
Er143     Er     0.5307   0.864   0.0833
Er144     Er     0.5307   0.864   0.5833
loop_
_geom_bond_atom_site_label_1
_geom_bond_atom_site_label_2
_geom_bond_distance
_geom_bond_site_symmetry_2
_ccdc_geom_bond_type
V1     Ti83    10.0   1_455     S
V1     Ti65    10.0   1_565     S
V1     Er89    10.0   .     S
V1     Er71    10.0   1_565     S
V1     Ce63    10.0   .     S
V1     Ce77    10.0   .     S
V2     Ti84    10.0   1_455     S
V2     Ti66    10.0   1_565     S
V2     Er90    10.0   .     S
V2     Er72    10.0   1_565     S
V2     Ce64    10.0   .     S
V2     Ce78    10.0   .     S
V3     Ti11    10.0   .     S
V3     Ti31    10.0   .     S
V3     Er26    10.0   .     S
V3     Er42    10.0   .     S
V3     Ce16    10.0   .     S
V3     Ce30    10.0   .     S
V4     Ti12    10.0   .     S
V4     Ti32    10.0   .     S
V4     Er25    10.0   1_556     S
V4     Er41    10.0   1_556     S
V4     Ce15    10.0   1_556     S
V4     Ce29    10.0   1_556     S
V5     Ti138    10.0   .     S
V5     Ti114    10.0   .     S
V5     Er119    10.0   1_655     S
V5     Er139    10.0   .     S
V5     Ce115    10.0   .     S
V5     Ce131    10.0   .     S
V6     Ti137    10.0   1_556     S
V6     Ti113    10.0   1_556     S
V6     Er120    10.0   1_655     S
V6     Er140    10.0   .     S
V6     Ce116    10.0   .     S
V6     Ce132    10.0   .     S
V7     Ti19    10.0   .     S
V7     Ti37    10.0   .     S
V7     Er24    10.0   1_554     S
V7     Er44    10.0   1_554     S
V7     Ce15    10.0   .     S
V7     Ce29    10.0   .     S
V8     Ti20    10.0   .     S
V8     Ti38    10.0   .     S
V8     Er23    10.0   .     S
V8     Er43    10.0   .     S
V8     Ce16    10.0   .     S
V8     Ce30    10.0   .     S
Ce9     Er25    10.0   .     S
Ce9     Ti11    10.0   .     S
Ce9     V99    10.0   .     S
Ce9     V97    10.0   .     S
Ce9     Er21    10.0   .     S
Ce9     Ti13    10.0   .     S
Ce10     Er26    10.0   .     S
Ce10     Ti12    10.0   .     S
Ce10     V100    10.0   .     S
Ce10     V98    10.0   .     S
Ce10     Er22    10.0   .     S
Ce10     Ti14    10.0   .     S
Ti11     Er25    10.0   .     S
Ti11     Ce16    10.0   .     S
Ti11     Er26    10.0   .     S
Ti11     V97    10.0   .     S
Ti12     Er26    10.0   .     S
Ti12     Ce15    10.0   1_556     S
Ti12     Er25    10.0   1_556     S
Ti12     V98    10.0   .     S
Ti13     Er21    10.0   .     S
Ti13     Ce18    10.0   1_554     S
Ti13     Er22    10.0   1_554     S
Ti13     V50    10.0   1_554     S
Ti13     V99    10.0   .     S
Ti14     Er22    10.0   .     S
Ti14     Ce17    10.0   .     S
Ti14     Er21    10.0   .     S
Ti14     V49    10.0   .     S
Ti14     V100    10.0   .     S
Ce15     Er24    10.0   1_554     S
Ce15     Ti19    10.0   .     S
Ce15     V4    10.0   1_554     S
Ce15     Er25    10.0   .     S
Ce15     Ti12    10.0   1_554     S
Ce16     Er23    10.0   .     S
Ce16     Ti20    10.0   .     S
Ce16     Er26    10.0   .     S
Ce17     V49    10.0   .     S
Ce17     V47    10.0   .     S
Ce17     Er21    10.0   .     S
Ce17     Er23    10.0   .     S
Ce17     Ti19    10.0   .     S
Ce18     V50    10.0   .     S
Ce18     V48    10.0   .     S
Ce18     Er22    10.0   .     S
Ce18     Ti13    10.0   1_556     S
Ce18     Er24    10.0   .     S
Ce18     Ti20    10.0   .     S
Ti19     Er24    10.0   1_554     S
Ti19     Er23    10.0   .     S
Ti19     V47    10.0   .     S
Ti20     Er23    10.0   .     S
Ti20     Er24    10.0   .     S
Ti20     V48    10.0   .     S
Er21     V49    10.0   .     S
Er21     V99    10.0   .     S
Er22     Ti13    10.0   1_556     S
Er22     V50    10.0   .     S
Er22     V100    10.0   .     S
Er23     V47    10.0   .     S
Er24     V7    10.0   1_556     S
Er24     Ce15    10.0   1_556     S
Er24     Ti19    10.0   1_556     S
Er24     V48    10.0   .     S
Er25     V4    10.0   1_554     S
Er25     Ti12    10.0   1_554     S
Er25     V97    10.0   .     S
Er26     V98    10.0   .     S
Ce27     Er39    10.0   .     S
Ce27     Ti35    10.0   .     S
Ce27     V105    10.0   .     S
Ce27     V95    10.0   .     S
Ce27     Er41    10.0   .     S
Ce27     Ti31    10.0   .     S
Ce28     Er40    10.0   .     S
Ce28     Ti36    10.0   .     S
Ce28     V106    10.0   .     S
Ce28     V96    10.0   .     S
Ce28     Er42    10.0   .     S
Ce28     Ti32    10.0   .     S
Ce29     Er44    10.0   1_554     S
Ce29     Ti37    10.0   .     S
Ce29     V4    10.0   1_554     S
Ce29     Er41    10.0   .     S
Ce29     Ti32    10.0   1_554     S
Ce30     Er43    10.0   .     S
Ce30     Ti38    10.0   .     S
Ce30     Er42    10.0   .     S
Ce30     Ti31    10.0   .     S
Ti31     Er41    10.0   .     S
Ti31     Er42    10.0   .     S
Ti31     V95    10.0   .     S
Ti32     Er42    10.0   .     S
Ti32     Ce29    10.0   1_556     S
Ti32     Er41    10.0   1_556     S
Ti32     V96    10.0   .     S
Ce33     Er39    10.0   .     S
Ce33     Ti36    10.0   .     S
Ce33     V45    10.0   .     S
Ce33     V51    10.0   .     S
Ce33     Er43    10.0   .     S
Ce33     Ti37    10.0   .     S
Ce34     Er40    10.0   .     S
Ce34     Ti35    10.0   1_556     S
Ce34     V46    10.0   .     S
Ce34     V52    10.0   .     S
Ce34     Er44    10.0   .     S
Ce34     Ti38    10.0   .     S
Ti35     Er39    10.0   .     S
Ti35     Ce34    10.0   1_554     S
Ti35     Er40    10.0   1_554     S
Ti35     V52    10.0   1_554     S
Ti35     V105    10.0   .     S
Ti36     Er40    10.0   .     S
Ti36     Er39    10.0   .     S
Ti36     V51    10.0   .     S
Ti36     V106    10.0   .     S
Ti37     Er44    10.0   1_554     S
Ti37     Er43    10.0   .     S
Ti37     V45    10.0   .     S
Ti38     Er43    10.0   .     S
Ti38     Er44    10.0   .     S
Ti38     V46    10.0   .     S
Er39     V51    10.0   .     S
Er39     V105    10.0   .     S
Er40     Ti35    10.0   1_556     S
Er40     V52    10.0   .     S
Er40     V106    10.0   .     S
Er41     V4    10.0   1_554     S
Er41     Ti32    10.0   1_554     S
Er41     V95    10.0   .     S
Er42     V96    10.0   .     S
Er43     V45    10.0   .     S
Er44     V7    10.0   1_556     S
Er44     Ce29    10.0   1_556     S
Er44     Ti37    10.0   1_556     S
Er44     V46    10.0   .     S
V45     Ti81    10.0   .     S
V45     Er93    10.0   .     S
V45     Ce79    10.0   .     S
V46     Ti82    10.0   .     S
V46     Er94    10.0   .     S
V46     Ce80    10.0   .     S
V47     Ti61    10.0   .     S
V47     Er69    10.0   .     S
V47     Ce59    10.0   .     S
V48     Ti62    10.0   .     S
V48     Er70    10.0   .     S
V48     Ce60    10.0   .     S
V49     Ti66    10.0   .     S
V49     Er71    10.0   .     S
V49     Ce59    10.0   .     S
V50     Ti13    10.0   1_556     S
V50     Ti65    10.0   1_556     S
V50     Er72    10.0   .     S
V50     Ce60    10.0   .     S
V51     Ti84    10.0   .     S
V51     Er89    10.0   1_655     S
V51     Ce79    10.0   .     S
V52     Ti35    10.0   1_556     S
V52     Ti83    10.0   1_556     S
V52     Er90    10.0   1_655     S
V52     Ce80    10.0   .     S
V53     Ti111    10.0   .     S
V53     Ti87    10.0   .     S
V53     Er122    10.0   .     S
V53     Er92    10.0   .     S
V53     Ce86    10.0   .     S
V53     Ce110    10.0   1_455     S
V54     Ti112    10.0   .     S
V54     Ti88    10.0   .     S
V54     Er121    10.0   1_556     S
V54     Er91    10.0   1_556     S
V54     Ce85    10.0   1_556     S
V54     Ce109    10.0   1_456     S
V55     Ti135    10.0   .     S
V55     Ti67    10.0   .     S
V55     Er144    10.0   .     S
V55     Er74    10.0   .     S
V55     Ce58    10.0   1_565     S
V55     Ce128    10.0   1_565     S
V56     Ti136    10.0   .     S
V56     Ti68    10.0   .     S
V56     Er143    10.0   1_556     S
V56     Er73    10.0   1_556     S
V56     Ce57    10.0   1_566     S
V56     Ce127    10.0   1_566     S
Ce57     V101    10.0   .     S
Ce57     V56    10.0   1_544     S
Ce57     Er70    10.0   1_554     S
Ce57     Ti61    10.0   .     S
Ce57     Er73    10.0   1_545     S
Ce57     Ti68    10.0   1_544     S
Ce58     V102    10.0   .     S
Ce58     V55    10.0   1_545     S
Ce58     Er69    10.0   .     S
Ce58     Ti62    10.0   .     S
Ce58     Er74    10.0   1_545     S
Ce58     Ti67    10.0   1_545     S
Ce59     Er71    10.0   .     S
Ce59     Ti66    10.0   .     S
Ce59     Er69    10.0   .     S
Ce59     Ti61    10.0   .     S
Ce60     Er72    10.0   .     S
Ce60     Ti65    10.0   1_556     S
Ce60     Er70    10.0   .     S
Ce60     Ti62    10.0   .     S
Ti61     Er70    10.0   1_554     S
Ti61     Er69    10.0   .     S
Ti61     V101    10.0   .     S
Ti62     Er69    10.0   .     S
Ti62     Er70    10.0   .     S
Ti62     V102    10.0   .     S
Ce63     Er73    10.0   .     S
Ce63     Ti67    10.0   .     S
Ce63     V75    10.0   .     S
Ce63     Er71    10.0   1_565     S
Ce63     Ti65    10.0   1_565     S
Ce64     Er74    10.0   .     S
Ce64     Ti68    10.0   .     S
Ce64     V76    10.0   .     S
Ce64     Er72    10.0   1_565     S
Ce64     Ti66    10.0   1_565     S
Ti65     V1    10.0   1_545     S
Ti65     V50    10.0   1_554     S
Ti65     Ce60    10.0   1_554     S
Ti65     Er72    10.0   1_554     S
Ti65     Ce63    10.0   1_545     S
Ti65     Er71    10.0   .     S
Ti66     V2    10.0   1_545     S
Ti66     Er71    10.0   .     S
Ti66     Ce64    10.0   1_545     S
Ti66     Er72    10.0   .     S
Ti67     Ce58    10.0   1_565     S
Ti67     Er74    10.0   .     S
Ti67     Er73    10.0   .     S
Ti67     V75    10.0   .     S
Ti68     Ce57    10.0   1_566     S
Ti68     Er73    10.0   1_556     S
Ti68     Er74    10.0   .     S
Ti68     V76    10.0   .     S
Er69     V102    10.0   .     S
Er70     Ce57    10.0   1_556     S
Er70     Ti61    10.0   1_556     S
Er70     V101    10.0   1_556     S
Er71     V1    10.0   1_545     S
Er71     Ce63    10.0   1_545     S
Er72     V2    10.0   1_545     S
Er72     Ti65    10.0   1_556     S
Er72     Ce64    10.0   1_545     S
Er73     V56    10.0   1_554     S
Er73     Ce57    10.0   1_565     S
Er73     Ti68    10.0   1_554     S
Er73     V75    10.0   .     S
Er74     Ce58    10.0   1_565     S
Er74     V76    10.0   .     S
V75     Ti87    10.0   .     S
V75     Er91    10.0   .     S
V75     Ce77    10.0   .     S
V76     Ti88    10.0   .     S
V76     Er92    10.0   .     S
V76     Ce78    10.0   .     S
Ce77     Er89    10.0   .     S
Ce77     Ti83    10.0   1_455     S
Ce77     Er91    10.0   .     S
Ce77     Ti87    10.0   .     S
Ce78     Er90    10.0   .     S
Ce78     Ti84    10.0   1_455     S
Ce78     Er92    10.0   .     S
Ce78     Ti88    10.0   .     S
Ce79     Er89    10.0   1_655     S
Ce79     Ti84    10.0   .     S
Ce79     Er93    10.0   .     S
Ce79     Ti81    10.0   .     S
Ce80     Er90    10.0   1_655     S
Ce80     Ti83    10.0   1_556     S
Ce80     Er94    10.0   .     S
Ce80     Ti82    10.0   .     S
Ti81     Er93    10.0   .     S
Ti81     Ce85    10.0   1_655     S
Ti81     Er94    10.0   1_554     S
Ti81     V103    10.0   .     S
Ti82     Er94    10.0   .     S
Ti82     Ce86    10.0   1_655     S
Ti82     Er93    10.0   .     S
Ti82     V104    10.0   .     S
Ti83     V1    10.0   1_655     S
Ti83     V52    10.0   1_554     S
Ti83     Ce77    10.0   1_655     S
Ti83     Er89    10.0   1_655     S
Ti83     Ce80    10.0   1_554     S
Ti83     Er90    10.0   1_654     S
Ti84     V2    10.0   1_655     S
Ti84     Ce78    10.0   1_655     S
Ti84     Er90    10.0   1_655     S
Ti84     Er89    10.0   1_655     S
Ce85     Er94    10.0   1_454     S
Ce85     Ti81    10.0   1_455     S
Ce85     V54    10.0   1_554     S
Ce85     V103    10.0   1_455     S
Ce85     Er91    10.0   .     S
Ce85     Ti88    10.0   1_554     S
Ce86     Er93    10.0   1_455     S
Ce86     Ti82    10.0   1_455     S
Ce86     V104    10.0   1_455     S
Ce86     Er92    10.0   .     S
Ce86     Ti87    10.0   .     S
Ti87     Er91    10.0   .     S
Ti87     Er92    10.0   .     S
Ti88     Er92    10.0   .     S
Ti88     Ce85    10.0   1_556     S
Ti88     Er91    10.0   1_556     S
Er89     V51    10.0   1_455     S
Er89     Ti83    10.0   1_455     S
Er89     Ce79    10.0   1_455     S
Er89     Ti84    10.0   1_455     S
Er90     V52    10.0   1_455     S
Er90     Ti84    10.0   1_455     S
Er90     Ce80    10.0   1_455     S
Er90     Ti83    10.0   1_456     S
Er91     V54    10.0   1_554     S
Er91     Ti88    10.0   1_554     S
Er93     Ce86    10.0   1_655     S
Er93     V104    10.0   .     S
Er94     Ce85    10.0   1_656     S
Er94     Ti81    10.0   1_556     S
Er94     V103    10.0   1_556     S
V95     Ti135    10.0   .     S
V95     Er143    10.0   .     S
V95     Ce133    10.0   .     S
V96     Ti136    10.0   .     S
V96     Er144    10.0   .     S
V96     Ce134    10.0   .     S
V97     Ti111    10.0   .     S
V97     Er121    10.0   .     S
V97     Ce107    10.0   .     S
V98     Ti112    10.0   .     S
V98     Er122    10.0   .     S
V98     Ce108    10.0   .     S
V99     Ti113    10.0   1_455     S
V99     Er119    10.0   .     S
V99     Ce107    10.0   .     S
V100     Ti114    10.0   1_455     S
V100     Er120    10.0   .     S
V100     Ce108    10.0   .     S
V101     Ti129    10.0   .     S
V101     Er142    10.0   1_554     S
V101     Er70    10.0   1_554     S
V101     Ce127    10.0   .     S
V102     Ti130    10.0   .     S
V102     Er141    10.0   .     S
V102     Ce128    10.0   .     S
V103     Ce85    10.0   1_655     S
V103     Ti117    10.0   .     S
V103     Er124    10.0   1_554     S
V103     Er94    10.0   1_554     S
V103     Ce109    10.0   .     S
V104     Ce86    10.0   1_655     S
V104     Ti118    10.0   .     S
V104     Er123    10.0   .     S
V104     Ce110    10.0   .     S
V105     Ti137    10.0   1_565     S
V105     Er139    10.0   1_565     S
V105     Ce133    10.0   .     S
V106     Ti138    10.0   1_565     S
V106     Er140    10.0   1_565     S
V106     Ce134    10.0   .     S
Ce107     Er121    10.0   .     S
Ce107     Ti111    10.0   .     S
Ce107     Er119    10.0   .     S
Ce107     Ti113    10.0   1_455     S
Ce108     Er122    10.0   .     S
Ce108     Ti112    10.0   .     S
Ce108     Er120    10.0   .     S
Ce108     Ti114    10.0   1_455     S
Ce109     Er121    10.0   1_655     S
Ce109     Ti112    10.0   1_654     S
Ce109     V54    10.0   1_654     S
Ce109     Er124    10.0   1_554     S
Ce109     Ti117    10.0   .     S
Ce110     Er122    10.0   1_655     S
Ce110     Ti111    10.0   1_655     S
Ce110     V53    10.0   1_655     S
Ce110     Er123    10.0   .     S
Ce110     Ti118    10.0   .     S
Ti111     Er121    10.0   .     S
Ti111     Ce110    10.0   1_455     S
Ti111     Er122    10.0   .     S
Ti112     Er122    10.0   .     S
Ti112     Ce109    10.0   1_456     S
Ti112     Er121    10.0   1_556     S
Ti113     V6    10.0   1_554     S
Ti113     V99    10.0   1_655     S
Ti113     Ce107    10.0   1_655     S
Ti113     Er119    10.0   1_655     S
Ti113     Ce116    10.0   1_554     S
Ti113     Er120    10.0   1_654     S
Ti114     V100    10.0   1_655     S
Ti114     Ce108    10.0   1_655     S
Ti114     Er120    10.0   1_655     S
Ti114     Ce115    10.0   .     S
Ti114     Er119    10.0   1_655     S
Ce115     Er119    10.0   1_655     S
Ce115     V125    10.0   .     S
Ce115     Er123    10.0   .     S
Ce115     Ti117    10.0   .     S
Ce116     Er120    10.0   1_655     S
Ce116     Ti113    10.0   1_556     S
Ce116     V126    10.0   .     S
Ce116     Er124    10.0   .     S
Ce116     Ti118    10.0   .     S
Ti117     Er124    10.0   1_554     S
Ti117     Er123    10.0   .     S
Ti117     V125    10.0   .     S
Ti118     Er123    10.0   .     S
Ti118     Er124    10.0   .     S
Ti118     V126    10.0   .     S
Er119     V5    10.0   1_455     S
Er119     Ti113    10.0   1_455     S
Er119     Ce115    10.0   1_455     S
Er119     Ti114    10.0   1_455     S
Er120     V6    10.0   1_455     S
Er120     Ti114    10.0   1_455     S
Er120     Ce116    10.0   1_455     S
Er120     Ti113    10.0   1_456     S
Er121     V54    10.0   1_554     S
Er121     Ce109    10.0   1_455     S
Er121     Ti112    10.0   1_554     S
Er122     Ce110    10.0   1_455     S
Er123     V125    10.0   .     S
Er124     V103    10.0   1_556     S
Er124     Ce109    10.0   1_556     S
Er124     Ti117    10.0   1_556     S
Er124     V126    10.0   .     S
V125     Ti129    10.0   .     S
V125     Er141    10.0   .     S
V125     Ce131    10.0   .     S
V126     Ti130    10.0   .     S
V126     Er142    10.0   .     S
V126     Ce132    10.0   .     S
Ce127     Er143    10.0   1_545     S
Ce127     Ti136    10.0   1_544     S
Ce127     V56    10.0   1_544     S
Ce127     Er142    10.0   1_554     S
Ce127     Ti129    10.0   .     S
Ce128     Er144    10.0   1_545     S
Ce128     Ti135    10.0   1_545     S
Ce128     V55    10.0   1_545     S
Ce128     Er141    10.0   .     S
Ce128     Ti130    10.0   .     S
Ti129     Er142    10.0   1_554     S
Ti129     Ce131    10.0   .     S
Ti129     Er141    10.0   .     S
Ti130     Er141    10.0   .     S
Ti130     Ce132    10.0   .     S
Ti130     Er142    10.0   .     S
Ce131     Er139    10.0   .     S
Ce131     Ti138    10.0   .     S
Ce131     Er141    10.0   .     S
Ce132     Er140    10.0   .     S
Ce132     Ti137    10.0   1_556     S
Ce132     Er142    10.0   .     S
Ce133     Er139    10.0   1_565     S
Ce133     Ti137    10.0   1_565     S
Ce133     Er143    10.0   .     S
Ce133     Ti135    10.0   .     S
Ce134     Er140    10.0   1_565     S
Ce134     Ti138    10.0   1_565     S
Ce134     Er144    10.0   .     S
Ce134     Ti136    10.0   .     S
Ti135     Ce128    10.0   1_565     S
Ti135     Er144    10.0   .     S
Ti135     Er143    10.0   .     S
Ti136     Ce127    10.0   1_566     S
Ti136     Er143    10.0   1_556     S
Ti136     Er144    10.0   .     S
Ti137     V6    10.0   1_554     S
Ti137     V105    10.0   1_545     S
Ti137     Ce132    10.0   1_554     S
Ti137     Er140    10.0   1_554     S
Ti137     Ce133    10.0   1_545     S
Ti137     Er139    10.0   .     S
Ti138     V106    10.0   1_545     S
Ti138     Er139    10.0   .     S
Ti138     Ce134    10.0   1_545     S
Ti138     Er140    10.0   .     S
Er139     V105    10.0   1_545     S
Er139     Ce133    10.0   1_545     S
Er140     V106    10.0   1_545     S
Er140     Ti137    10.0   1_556     S
Er140     Ce134    10.0   1_545     S
Er142     V101    10.0   1_556     S
Er142     Ce127    10.0   1_556     S
Er142     Ti129    10.0   1_556     S
Er143     V56    10.0   1_554     S
Er143     Ce127    10.0   1_565     S
Er143     Ti136    10.0   1_554     S
Er144     Ce128    10.0   1_565     S
