data_ato
_audit_creation_date              2019-12-31
_audit_creation_method            'Pymatgen'
_symmetry_space_group_name_H-M    'P1'
_symmetry_Int_Tables_number       1
loop_
_symmetry_equiv_pos_as_xyz
  x,y,z
_cell_length_a                    68.4684
_cell_length_b                    68.4684
_cell_length_c                    31.141
_cell_angle_alpha                 90.0
_cell_angle_beta                 90.0
_cell_angle_gamma                 120.0
loop_
_atom_site_label
_atom_site_type_symbol
_atom_site_fract_x
_atom_site_fract_y
_atom_site_fract_z
V1     V     0.0814   0.4677   0.2083
V2     V     0.0814   0.4677   0.7083
V3     V     0.9186   0.3863   0.2917
V4     V     0.9186   0.3863   0.7917
V5     V     0.0529   0.2519   0.375
V6     V     0.0529   0.2519   0.875
V7     V     0.1344   0.4148   0.4583
V8     V     0.1344   0.4148   0.9583
V9     V     0.9471   0.199   0.125
V10     V     0.9471   0.199   0.625
V11     V     0.8656   0.2804   0.0417
V12     V     0.8656   0.2804   0.5417
V13     V     0.8656   0.5852   0.0417
V14     V     0.8656   0.5852   0.5417
V15     V     0.9471   0.7481   0.125
V16     V     0.9471   0.7481   0.625
V17     V     0.1344   0.7196   0.4583
V18     V     0.1344   0.7196   0.9583
V19     V     0.0529   0.801   0.375
V20     V     0.0529   0.801   0.875
V21     V     0.9186   0.5323   0.2917
V22     V     0.9186   0.5323   0.7917
V23     V     0.0814   0.6137   0.2083
V24     V     0.0814   0.6137   0.7083
V25     V     0.6137   0.5323   0.2917
V26     V     0.6137   0.5323   0.7917
V27     V     0.5323   0.6137   0.2083
V28     V     0.5323   0.6137   0.7083
V29     V     0.7196   0.5852   0.0417
V30     V     0.7196   0.5852   0.5417
V31     V     0.801   0.7481   0.125
V32     V     0.801   0.7481   0.625
V33     V     0.7481   0.801   0.375
V34     V     0.7481   0.801   0.875
V35     V     0.5852   0.7196   0.4583
V36     V     0.5852   0.7196   0.9583
V37     V     0.4677   0.3863   0.2917
V38     V     0.4677   0.3863   0.7917
V39     V     0.3863   0.4677   0.2083
V40     V     0.3863   0.4677   0.7083
V41     V     0.199   0.2519   0.375
V42     V     0.199   0.2519   0.875
V43     V     0.2804   0.4148   0.4583
V44     V     0.2804   0.4148   0.9583
V45     V     0.4148   0.2804   0.0417
V46     V     0.4148   0.2804   0.5417
V47     V     0.2519   0.199   0.125
V48     V     0.2519   0.199   0.625
V49     V     0.7196   0.1344   0.0417
V50     V     0.7196   0.1344   0.5417
V51     V     0.801   0.0529   0.125
V52     V     0.801   0.0529   0.625
V53     V     0.7481   0.9471   0.375
V54     V     0.7481   0.9471   0.875
V55     V     0.5852   0.8656   0.4583
V56     V     0.5852   0.8656   0.9583
V57     V     0.5323   0.9186   0.2083
V58     V     0.5323   0.9186   0.7083
V59     V     0.6137   0.0814   0.2917
V60     V     0.6137   0.0814   0.7917
V61     V     0.3863   0.9186   0.2083
V62     V     0.3863   0.9186   0.7083
V63     V     0.4677   0.0814   0.2917
V64     V     0.4677   0.0814   0.7917
V65     V     0.4148   0.1344   0.0417
V66     V     0.4148   0.1344   0.5417
V67     V     0.2519   0.0529   0.125
V68     V     0.2519   0.0529   0.625
V69     V     0.199   0.9471   0.375
V70     V     0.199   0.9471   0.875
V71     V     0.2804   0.8656   0.4583
V72     V     0.2804   0.8656   0.9583
loop_
_geom_bond_atom_site_label_1
_geom_bond_atom_site_label_2
_geom_bond_distance
_geom_bond_site_symmetry_2
_ccdc_geom_bond_type
V1     V3    10.0   1_455     S
V1     V8    10.0   1_554     S
V1     V7    10.0   .     S
V1     V23    10.0   .     S
V2     V4    10.0   1_455     S
V2     V7    10.0   .     S
V2     V8    10.0   .     S
V2     V24    10.0   .     S
V3     V1    10.0   1_655     S
V3     V12    10.0   .     S
V3     V11    10.0   .     S
V3     V21    10.0   .     S
V4     V2    10.0   1_655     S
V4     V11    10.0   1_556     S
V4     V12    10.0   .     S
V4     V22    10.0   .     S
V5     V7    10.0   .     S
V5     V9    10.0   1_455     S
V5     V10    10.0   1_455     S
V5     V41    10.0   .     S
V6     V8    10.0   .     S
V6     V10    10.0   1_455     S
V6     V9    10.0   1_456     S
V6     V42    10.0   .     S
V7     V43    10.0   .     S
V8     V1    10.0   1_556     S
V8     V44    10.0   .     S
V9     V11    10.0   .     S
V9     V5    10.0   1_655     S
V9     V6    10.0   1_654     S
V9     V51    10.0   .     S
V10     V12    10.0   .     S
V10     V6    10.0   1_655     S
V10     V5    10.0   1_655     S
V10     V52    10.0   .     S
V11     V4    10.0   1_554     S
V11     V49    10.0   .     S
V12     V50    10.0   .     S
V13     V15    10.0   .     S
V13     V22    10.0   1_554     S
V13     V21    10.0   .     S
V13     V29    10.0   .     S
V14     V16    10.0   .     S
V14     V21    10.0   .     S
V14     V22    10.0   .     S
V14     V30    10.0   .     S
V15     V19    10.0   1_655     S
V15     V20    10.0   1_654     S
V15     V31    10.0   .     S
V16     V20    10.0   1_655     S
V16     V19    10.0   1_655     S
V16     V32    10.0   .     S
V17     V19    10.0   .     S
V17     V23    10.0   .     S
V17     V24    10.0   .     S
V17     V71    10.0   .     S
V18     V20    10.0   .     S
V18     V24    10.0   .     S
V18     V23    10.0   1_556     S
V18     V72    10.0   .     S
V19     V15    10.0   1_455     S
V19     V16    10.0   1_455     S
V19     V69    10.0   .     S
V20     V16    10.0   1_455     S
V20     V15    10.0   1_456     S
V20     V70    10.0   .     S
V21     V23    10.0   1_655     S
V22     V24    10.0   1_655     S
V22     V13    10.0   1_556     S
V23     V21    10.0   1_455     S
V23     V18    10.0   1_554     S
V24     V22    10.0   1_455     S
V25     V27    10.0   .     S
V25     V30    10.0   .     S
V25     V29    10.0   .     S
V25     V37    10.0   .     S
V26     V28    10.0   .     S
V26     V29    10.0   1_556     S
V26     V30    10.0   .     S
V26     V38    10.0   .     S
V27     V36    10.0   1_554     S
V27     V35    10.0   .     S
V27     V39    10.0   .     S
V28     V35    10.0   .     S
V28     V36    10.0   .     S
V28     V40    10.0   .     S
V29     V31    10.0   .     S
V29     V26    10.0   1_554     S
V30     V32    10.0   .     S
V31     V33    10.0   .     S
V31     V34    10.0   1_554     S
V32     V34    10.0   .     S
V32     V33    10.0   .     S
V33     V35    10.0   .     S
V33     V53    10.0   .     S
V34     V36    10.0   .     S
V34     V31    10.0   1_556     S
V34     V54    10.0   .     S
V35     V55    10.0   .     S
V36     V27    10.0   1_556     S
V36     V56    10.0   .     S
V37     V39    10.0   .     S
V37     V46    10.0   .     S
V37     V45    10.0   .     S
V38     V40    10.0   .     S
V38     V45    10.0   1_556     S
V38     V46    10.0   .     S
V39     V44    10.0   1_554     S
V39     V43    10.0   .     S
V40     V43    10.0   .     S
V40     V44    10.0   .     S
V41     V43    10.0   .     S
V41     V47    10.0   .     S
V41     V48    10.0   .     S
V42     V44    10.0   .     S
V42     V48    10.0   .     S
V42     V47    10.0   1_556     S
V44     V39    10.0   1_556     S
V45     V47    10.0   .     S
V45     V38    10.0   1_554     S
V45     V65    10.0   .     S
V46     V48    10.0   .     S
V46     V66    10.0   .     S
V47     V42    10.0   1_554     S
V47     V67    10.0   .     S
V48     V68    10.0   .     S
V49     V51    10.0   .     S
V49     V60    10.0   1_554     S
V49     V59    10.0   .     S
V50     V52    10.0   .     S
V50     V59    10.0   .     S
V50     V60    10.0   .     S
V51     V53    10.0   1_545     S
V51     V54    10.0   1_544     S
V52     V54    10.0   1_545     S
V52     V53    10.0   1_545     S
V53     V55    10.0   .     S
V53     V51    10.0   1_565     S
V53     V52    10.0   1_565     S
V54     V56    10.0   .     S
V54     V52    10.0   1_565     S
V54     V51    10.0   1_566     S
V55     V57    10.0   .     S
V55     V58    10.0   .     S
V56     V58    10.0   .     S
V56     V57    10.0   1_556     S
V57     V56    10.0   1_554     S
V57     V59    10.0   1_565     S
V57     V61    10.0   .     S
V58     V60    10.0   1_565     S
V58     V62    10.0   .     S
V59     V57    10.0   1_545     S
V59     V63    10.0   .     S
V60     V58    10.0   1_545     S
V60     V49    10.0   1_556     S
V60     V64    10.0   .     S
V61     V63    10.0   1_565     S
V61     V72    10.0   1_554     S
V61     V71    10.0   .     S
V62     V64    10.0   1_565     S
V62     V71    10.0   .     S
V62     V72    10.0   .     S
V63     V61    10.0   1_545     S
V63     V66    10.0   .     S
V63     V65    10.0   .     S
V64     V62    10.0   1_545     S
V64     V65    10.0   1_556     S
V64     V66    10.0   .     S
V65     V67    10.0   .     S
V65     V64    10.0   1_554     S
V66     V68    10.0   .     S
V67     V69    10.0   1_545     S
V67     V70    10.0   1_544     S
V68     V70    10.0   1_545     S
V68     V69    10.0   1_545     S
V69     V71    10.0   .     S
V69     V67    10.0   1_565     S
V69     V68    10.0   1_565     S
V70     V72    10.0   .     S
V70     V68    10.0   1_565     S
V70     V67    10.0   1_566     S
V72     V61    10.0   1_556     S
