data_ats
_audit_creation_date              2019-12-31
_audit_creation_method            'Pymatgen'
_symmetry_space_group_name_H-M    'P1'
_symmetry_Int_Tables_number       1
loop_
_symmetry_equiv_pos_as_xyz
  x,y,z
_cell_length_a                    29.9922
_cell_length_b                    29.9922
_cell_length_c                    24.9508
_cell_angle_alpha                 90.0
_cell_angle_beta                 90.0
_cell_angle_gamma                 120.0
loop_
_atom_site_label
_atom_site_type_symbol
_atom_site_fract_x
_atom_site_fract_y
_atom_site_fract_z
Ti1     Ti     0.1667   0.3333   0.75
Ti2     Ti     0.1667   0.8333   0.75
Ti3     Ti     0.6667   0.3333   0.75
Ti4     Ti     0.6667   0.8333   0.75
Er5     Er     0.3333   0.1667   0.75
Er6     Er     0.3333   0.6667   0.75
Er7     Er     0.8333   0.1667   0.75
Er8     Er     0.8333   0.6667   0.75
Er9     Er     0.1667   0.3333   0.25
Er10     Er     0.1667   0.8333   0.25
Er11     Er     0.6667   0.3333   0.25
Er12     Er     0.6667   0.8333   0.25
Ti13     Ti     0.3333   0.1667   0.25
Ti14     Ti     0.3333   0.6667   0.25
Ti15     Ti     0.8333   0.1667   0.25
Ti16     Ti     0.8333   0.6667   0.25
V17     V     0.0   0.0   0.0
V18     V     0.0   0.5   0.0
V19     V     0.5   0.0   0.0
V20     V     0.5   0.5   0.0
V21     V     0.0   0.0   0.5
V22     V     0.0   0.5   0.5
V23     V     0.5   0.0   0.5
V24     V     0.5   0.5   0.5
loop_
_geom_bond_atom_site_label_1
_geom_bond_atom_site_label_2
_geom_bond_distance
_geom_bond_site_symmetry_2
_ccdc_geom_bond_type
Ti1     Er5    8.658   .     S
Ti1     Er6    8.658   .     S
Ti1     Er7    8.658   1_455     S
Ti2     Er6    8.658   .     S
Ti2     Er5    8.658   1_565     S
Ti2     Er8    8.658   1_455     S
Ti3     Er7    8.658   .     S
Ti3     Er8    8.658   .     S
Ti3     Er5    8.658   .     S
Ti4     Er8    8.658   .     S
Ti4     Er7    8.658   1_565     S
Ti4     Er6    8.658   .     S
Er5     V17    10.671   1_556     S
Er5     V20    10.671   1_556     S
Er5     V24    10.671   .     S
Er5     V21    10.671   .     S
Er5     V19    10.671   1_556     S
Er5     V23    10.671   .     S
Er5     Ti2    8.658   1_545     S
Er6     V18    10.671   1_556     S
Er6     V19    10.671   1_566     S
Er6     V23    10.671   1_565     S
Er6     V22    10.671   .     S
Er6     V20    10.671   1_556     S
Er6     V24    10.671   .     S
Er7     V19    10.671   1_556     S
Er7     V18    10.671   1_656     S
Er7     V22    10.671   1_655     S
Er7     V23    10.671   .     S
Er7     V17    10.671   1_656     S
Er7     V21    10.671   1_655     S
Er7     Ti4    8.658   1_545     S
Er7     Ti1    8.658   1_655     S
Er8     V20    10.671   1_556     S
Er8     V17    10.671   1_666     S
Er8     V21    10.671   1_665     S
Er8     V24    10.671   .     S
Er8     V18    10.671   1_656     S
Er8     V22    10.671   1_655     S
Er8     Ti2    8.658   1_655     S
Er9     V18    10.671   .     S
Er9     V20    10.671   .     S
Er9     V22    10.671   .     S
Er9     V24    10.671   .     S
Er9     V17    10.671   .     S
Er9     V21    10.671   .     S
Er9     Ti13    8.658   .     S
Er9     Ti14    8.658   .     S
Er9     Ti15    8.658   1_455     S
Er10     V17    10.671   1_565     S
Er10     V19    10.671   1_565     S
Er10     V21    10.671   1_565     S
Er10     V23    10.671   1_565     S
Er10     V18    10.671   .     S
Er10     V22    10.671   .     S
Er10     Ti14    8.658   .     S
Er10     Ti13    8.658   1_565     S
Er10     Ti16    8.658   1_455     S
Er11     V20    10.671   .     S
Er11     V18    10.671   1_655     S
Er11     V24    10.671   .     S
Er11     V22    10.671   1_655     S
Er11     V19    10.671   .     S
Er11     V23    10.671   .     S
Er11     Ti15    8.658   .     S
Er11     Ti16    8.658   .     S
Er11     Ti13    8.658   .     S
Er12     V19    10.671   1_565     S
Er12     V17    10.671   1_665     S
Er12     V23    10.671   1_565     S
Er12     V21    10.671   1_665     S
Er12     V20    10.671   .     S
Er12     V24    10.671   .     S
Er12     Ti16    8.658   .     S
Er12     Ti15    8.658   1_565     S
Er12     Ti14    8.658   .     S
Ti13     Er10    8.658   1_545     S
Ti15     Er12    8.658   1_545     S
Ti15     Er9    8.658   1_655     S
Ti16     Er10    8.658   1_655     S
V17     Er5    10.671   1_554     S
V17     Er8    10.671   1_444     S
V17     Er7    10.671   1_454     S
V17     Er10    10.671   1_545     S
V17     Er12    10.671   1_445     S
V18     Er6    10.671   1_554     S
V18     Er7    10.671   1_454     S
V18     Er8    10.671   1_454     S
V18     Er11    10.671   1_455     S
V19     Er7    10.671   1_554     S
V19     Er6    10.671   1_544     S
V19     Er5    10.671   1_554     S
V19     Er12    10.671   1_545     S
V19     Er10    10.671   1_545     S
V20     Er8    10.671   1_554     S
V20     Er5    10.671   1_554     S
V20     Er6    10.671   1_554     S
V21     Er8    10.671   1_445     S
V21     Er7    10.671   1_455     S
V21     Er10    10.671   1_545     S
V21     Er12    10.671   1_445     S
V22     Er7    10.671   1_455     S
V22     Er8    10.671   1_455     S
V22     Er11    10.671   1_455     S
V23     Er6    10.671   1_545     S
V23     Er12    10.671   1_545     S
V23     Er10    10.671   1_545     S
