data_baa-e
_audit_creation_date              2019-12-31
_audit_creation_method            'Pymatgen'
_symmetry_space_group_name_H-M    'P1'
_symmetry_Int_Tables_number       1
loop_
_symmetry_equiv_pos_as_xyz
  x,y,z
_cell_length_a                    37.3437
_cell_length_b                    37.3437
_cell_length_c                    39.0262
_cell_angle_alpha                 90.0
_cell_angle_beta                 90.0
_cell_angle_gamma                 90.0
loop_
_atom_site_label
_atom_site_type_symbol
_atom_site_fract_x
_atom_site_fract_y
_atom_site_fract_z
V1     V     0.4394   0.6194   0.0906
V2     V     0.4394   0.6194   0.5906
V3     V     0.4394   0.8806   0.0344
V4     V     0.4394   0.8806   0.5344
V5     V     0.0606   0.8806   0.3406
V6     V     0.0606   0.8806   0.8406
V7     V     0.0607   0.6194   0.2844
V8     V     0.0607   0.6194   0.7844
Er9     Er     0.25   0.7206   0.4375
Er10     Er     0.25   0.7206   0.9375
Er11     Er     0.25   0.7794   0.1875
Er12     Er     0.25   0.7794   0.6875
V13     V     0.6194   0.9394   0.2156
V14     V     0.6194   0.9394   0.7156
V15     V     0.8806   0.9394   0.1594
V16     V     0.8806   0.9394   0.6594
V17     V     0.6194   0.5606   0.4094
V18     V     0.6194   0.5606   0.9094
V19     V     0.8806   0.5606   0.4656
V20     V     0.8806   0.5606   0.9656
Er21     Er     0.7794   0.75   0.3125
Er22     Er     0.7794   0.75   0.8125
Er23     Er     0.7206   0.75   0.0625
Er24     Er     0.7206   0.75   0.5625
V25     V     0.5606   0.3806   0.0906
V26     V     0.5606   0.3806   0.5906
V27     V     0.5606   0.1194   0.0344
V28     V     0.5606   0.1194   0.5344
V29     V     0.9394   0.1194   0.3406
V30     V     0.9394   0.1194   0.8406
V31     V     0.9394   0.3806   0.2844
V32     V     0.9394   0.3806   0.7844
Er33     Er     0.75   0.2794   0.4375
Er34     Er     0.75   0.2794   0.9375
Er35     Er     0.75   0.2206   0.1875
Er36     Er     0.75   0.2206   0.6875
V37     V     0.3806   0.0607   0.2156
V38     V     0.3806   0.0607   0.7156
V39     V     0.1194   0.0606   0.1594
V40     V     0.1194   0.0606   0.6594
V41     V     0.3806   0.4394   0.4094
V42     V     0.3806   0.4394   0.9094
V43     V     0.1194   0.4394   0.4656
V44     V     0.1194   0.4394   0.9656
Er45     Er     0.2206   0.25   0.3125
Er46     Er     0.2206   0.25   0.8125
Er47     Er     0.2794   0.25   0.0625
Er48     Er     0.2794   0.25   0.5625
loop_
_geom_bond_atom_site_label_1
_geom_bond_atom_site_label_2
_geom_bond_distance
_geom_bond_site_symmetry_2
_ccdc_geom_bond_type
V1     Er10    10.0   1_554     S
V1     V3    10.0   .     S
V1     Er11    10.0   .     S
V1     V42    10.0   1_554     S
V1     V18    10.0   1_554     S
V1     V25    10.0   .     S
V2     Er9    10.0   .     S
V2     V4    10.0   .     S
V2     Er12    10.0   .     S
V2     V41    10.0   .     S
V2     V17    10.0   .     S
V2     V26    10.0   .     S
V3     Er10    10.0   1_554     S
V3     Er11    10.0   .     S
V3     V27    10.0   1_565     S
V3     V37    10.0   1_565     S
V3     V13    10.0   .     S
V4     Er9    10.0   .     S
V4     Er12    10.0   .     S
V4     V28    10.0   1_565     S
V4     V38    10.0   1_565     S
V4     V14    10.0   .     S
V5     Er11    10.0   .     S
V5     V7    10.0   .     S
V5     Er9    10.0   .     S
V5     V15    10.0   1_455     S
V5     V39    10.0   1_565     S
V5     V29    10.0   1_465     S
V6     Er12    10.0   .     S
V6     V8    10.0   .     S
V6     Er10    10.0   .     S
V6     V16    10.0   1_455     S
V6     V40    10.0   1_565     S
V6     V30    10.0   1_465     S
V7     Er11    10.0   .     S
V7     Er9    10.0   .     S
V7     V43    10.0   .     S
V7     V19    10.0   1_455     S
V7     V31    10.0   1_455     S
V8     Er12    10.0   .     S
V8     Er10    10.0   .     S
V8     V44    10.0   .     S
V8     V20    10.0   1_455     S
V8     V32    10.0   1_455     S
Er9     Er11    10.0   .     S
Er9     Er12    10.0   .     S
Er10     V1    10.0   1_556     S
Er10     V3    10.0   1_556     S
Er10     Er12    10.0   .     S
Er10     Er11    10.0   1_556     S
Er11     Er10    10.0   1_554     S
V13     Er23    10.0   .     S
V13     V15    10.0   .     S
V13     Er21    10.0   .     S
V13     V27    10.0   1_565     S
V13     V37    10.0   1_565     S
V14     Er24    10.0   .     S
V14     V16    10.0   .     S
V14     Er22    10.0   .     S
V14     V28    10.0   1_565     S
V14     V38    10.0   1_565     S
V15     V5    10.0   1_655     S
V15     Er23    10.0   .     S
V15     Er21    10.0   .     S
V15     V29    10.0   1_565     S
V15     V39    10.0   1_665     S
V16     V6    10.0   1_655     S
V16     Er24    10.0   .     S
V16     Er22    10.0   .     S
V16     V30    10.0   1_565     S
V16     V40    10.0   1_665     S
V17     Er24    10.0   .     S
V17     V19    10.0   .     S
V17     Er21    10.0   .     S
V17     V26    10.0   .     S
V17     V41    10.0   .     S
V18     Er23    10.0   1_556     S
V18     V20    10.0   .     S
V18     Er22    10.0   .     S
V18     V1    10.0   1_556     S
V18     V25    10.0   1_556     S
V18     V42    10.0   .     S
V19     Er24    10.0   .     S
V19     Er21    10.0   .     S
V19     V31    10.0   .     S
V19     V43    10.0   1_655     S
V19     V7    10.0   1_655     S
V20     Er23    10.0   1_556     S
V20     Er22    10.0   .     S
V20     V32    10.0   .     S
V20     V44    10.0   1_655     S
V20     V8    10.0   1_655     S
Er21     Er24    10.0   .     S
Er21     Er23    10.0   .     S
Er22     Er23    10.0   1_556     S
Er22     Er24    10.0   .     S
Er23     V18    10.0   1_554     S
Er23     V20    10.0   1_554     S
Er23     Er22    10.0   1_554     S
V25     Er34    10.0   1_554     S
V25     V27    10.0   .     S
V25     Er35    10.0   .     S
V25     V18    10.0   1_554     S
V25     V42    10.0   1_554     S
V26     Er33    10.0   .     S
V26     V28    10.0   .     S
V26     Er36    10.0   .     S
V26     V41    10.0   .     S
V27     V3    10.0   1_545     S
V27     V13    10.0   1_545     S
V27     Er34    10.0   1_554     S
V27     Er35    10.0   .     S
V27     V37    10.0   .     S
V28     V4    10.0   1_545     S
V28     V14    10.0   1_545     S
V28     Er33    10.0   .     S
V28     Er36    10.0   .     S
V28     V38    10.0   .     S
V29     Er35    10.0   .     S
V29     V31    10.0   .     S
V29     Er33    10.0   .     S
V29     V39    10.0   1_655     S
V29     V15    10.0   1_545     S
V29     V5    10.0   1_645     S
V30     Er36    10.0   .     S
V30     V32    10.0   .     S
V30     Er34    10.0   .     S
V30     V40    10.0   1_655     S
V30     V16    10.0   1_545     S
V30     V6    10.0   1_645     S
V31     Er35    10.0   .     S
V31     Er33    10.0   .     S
V31     V43    10.0   1_655     S
V31     V7    10.0   1_655     S
V32     Er36    10.0   .     S
V32     Er34    10.0   .     S
V32     V44    10.0   1_655     S
V32     V8    10.0   1_655     S
Er33     Er35    10.0   .     S
Er33     Er36    10.0   .     S
Er34     V25    10.0   1_556     S
Er34     V27    10.0   1_556     S
Er34     Er36    10.0   .     S
Er34     Er35    10.0   1_556     S
Er35     Er34    10.0   1_554     S
V37     V3    10.0   1_545     S
V37     Er47    10.0   .     S
V37     V39    10.0   .     S
V37     Er45    10.0   .     S
V37     V13    10.0   1_545     S
V38     V4    10.0   1_545     S
V38     Er48    10.0   .     S
V38     V40    10.0   .     S
V38     Er46    10.0   .     S
V38     V14    10.0   1_545     S
V39     Er47    10.0   .     S
V39     Er45    10.0   .     S
V39     V5    10.0   1_545     S
V39     V29    10.0   1_455     S
V39     V15    10.0   1_445     S
V40     Er48    10.0   .     S
V40     Er46    10.0   .     S
V40     V6    10.0   1_545     S
V40     V30    10.0   1_455     S
V40     V16    10.0   1_445     S
V41     Er48    10.0   .     S
V41     V43    10.0   .     S
V41     Er45    10.0   .     S
V42     V1    10.0   1_556     S
V42     Er47    10.0   1_556     S
V42     V44    10.0   .     S
V42     Er46    10.0   .     S
V42     V25    10.0   1_556     S
V43     V31    10.0   1_455     S
V43     Er48    10.0   .     S
V43     Er45    10.0   .     S
V43     V19    10.0   1_455     S
V44     V32    10.0   1_455     S
V44     Er47    10.0   1_556     S
V44     Er46    10.0   .     S
V44     V20    10.0   1_455     S
Er45     Er48    10.0   .     S
Er45     Er47    10.0   .     S
Er46     Er47    10.0   1_556     S
Er46     Er48    10.0   .     S
Er47     V42    10.0   1_554     S
Er47     V44    10.0   1_554     S
Er47     Er46    10.0   1_554     S
