data_baa
_audit_creation_date              2019-12-31
_audit_creation_method            'Pymatgen'
_symmetry_space_group_name_H-M    'P1'
_symmetry_Int_Tables_number       1
loop_
_symmetry_equiv_pos_as_xyz
  x,y,z
_cell_length_a                    31.72
_cell_length_b                    31.72
_cell_length_c                    35.6786
_cell_angle_alpha                 90.0
_cell_angle_beta                 90.0
_cell_angle_gamma                 90.0
loop_
_atom_site_label
_atom_site_type_symbol
_atom_site_fract_x
_atom_site_fract_y
_atom_site_fract_z
Er1     Er     0.3213   0.25   0.0625
Er2     Er     0.3213   0.25   0.5625
Er3     Er     0.75   0.3213   0.4375
Er4     Er     0.75   0.3213   0.9375
Er5     Er     0.25   0.6787   0.4375
Er6     Er     0.25   0.6787   0.9375
V7     V     0.5   0.5   0.0
V8     V     0.5   0.5   0.5
Er9     Er     0.75   0.1787   0.1875
Er10     Er     0.75   0.1787   0.6875
Er11     Er     0.6787   0.75   0.0625
Er12     Er     0.6787   0.75   0.5625
Er13     Er     0.8213   0.75   0.3125
Er14     Er     0.8213   0.75   0.8125
V15     V     0.0   0.0   0.25
V16     V     0.0   0.0   0.75
Er17     Er     0.25   0.8213   0.1875
Er18     Er     0.25   0.8213   0.6875
V19     V     0.5   0.0   0.125
V20     V     0.5   0.0   0.625
Er21     Er     0.1787   0.25   0.3125
Er22     Er     0.1787   0.25   0.8125
V23     V     0.0   0.5   0.375
V24     V     0.0   0.5   0.875
loop_
_geom_bond_atom_site_label_1
_geom_bond_atom_site_label_2
_geom_bond_distance
_geom_bond_site_symmetry_2
_ccdc_geom_bond_type
Er1     V19    10.0   .     S
Er1     V7    10.0   .     S
Er1     Er22    10.0   1_554     S
Er1     Er21    10.0   .     S
Er2     V20    10.0   .     S
Er2     V8    10.0   .     S
Er2     Er21    10.0   .     S
Er2     Er22    10.0   .     S
Er3     V23    10.0   1_655     S
Er3     V8    10.0   .     S
Er3     Er9    10.0   .     S
Er3     Er10    10.0   .     S
Er4     V24    10.0   1_655     S
Er4     V7    10.0   1_556     S
Er4     Er10    10.0   .     S
Er4     Er9    10.0   1_556     S
Er5     V23    10.0   .     S
Er5     V8    10.0   .     S
Er5     Er17    10.0   .     S
Er5     Er18    10.0   .     S
Er6     V24    10.0   .     S
Er6     V7    10.0   1_556     S
Er6     Er18    10.0   .     S
Er6     Er17    10.0   1_556     S
V7     Er4    10.0   1_554     S
V7     Er6    10.0   1_554     S
V7     Er11    10.0   .     S
V8     Er12    10.0   .     S
Er9     V15    10.0   1_655     S
Er9     V19    10.0   .     S
Er9     Er4    10.0   1_554     S
Er10     V16    10.0   1_655     S
Er10     V20    10.0   .     S
Er11     V19    10.0   1_565     S
Er11     Er14    10.0   1_554     S
Er11     Er13    10.0   .     S
Er12     V20    10.0   1_565     S
Er12     Er13    10.0   .     S
Er12     Er14    10.0   .     S
Er13     V23    10.0   1_655     S
Er13     V15    10.0   1_665     S
Er14     V24    10.0   1_655     S
Er14     V16    10.0   1_665     S
Er14     Er11    10.0   1_556     S
V15     Er9    10.0   1_455     S
V15     Er13    10.0   1_445     S
V15     Er17    10.0   1_545     S
V15     Er21    10.0   .     S
V16     Er10    10.0   1_455     S
V16     Er14    10.0   1_445     S
V16     Er18    10.0   1_545     S
V16     Er22    10.0   .     S
Er17     V15    10.0   1_565     S
Er17     V19    10.0   1_565     S
Er17     Er6    10.0   1_554     S
Er18     V16    10.0   1_565     S
Er18     V20    10.0   1_565     S
V19     Er11    10.0   1_545     S
V19     Er17    10.0   1_545     S
V20     Er12    10.0   1_545     S
V20     Er18    10.0   1_545     S
Er21     V23    10.0   .     S
Er22     V24    10.0   .     S
Er22     Er1    10.0   1_556     S
V23     Er3    10.0   1_455     S
V23     Er13    10.0   1_455     S
V24     Er4    10.0   1_455     S
V24     Er14    10.0   1_455     S
