data_baf
_audit_creation_date              2019-12-31
_audit_creation_method            'Pymatgen'
_symmetry_space_group_name_H-M    'P1'
_symmetry_Int_Tables_number       1
loop_
_symmetry_equiv_pos_as_xyz
  x,y,z
_cell_length_a                    31.3783
_cell_length_b                    58.4619
_cell_length_c                    30.8392
_cell_angle_alpha                 90.0
_cell_angle_beta                 90.0
_cell_angle_gamma                 90.0
loop_
_atom_site_label
_atom_site_type_symbol
_atom_site_fract_x
_atom_site_fract_y
_atom_site_fract_z
V1     V     0.1594   0.5545   0.125
V2     V     0.1594   0.5545   0.625
V3     V     0.1594   0.4455   0.375
V4     V     0.1594   0.4455   0.875
V5     V     0.8406   0.4455   0.375
V6     V     0.8406   0.4455   0.875
V7     V     0.8406   0.5545   0.125
V8     V     0.8406   0.5545   0.625
Er9     Er     0.1594   0.2745   0.375
Er10     Er     0.1594   0.2745   0.875
Er11     Er     0.3406   0.2255   0.125
Er12     Er     0.3406   0.2255   0.625
Er13     Er     0.8406   0.2745   0.375
Er14     Er     0.8406   0.2745   0.875
Er15     Er     0.6593   0.2255   0.125
Er16     Er     0.6593   0.2255   0.625
V17     V     0.3406   0.9455   0.375
V18     V     0.3406   0.9455   0.875
V19     V     0.3406   0.0545   0.125
V20     V     0.3406   0.0545   0.625
V21     V     0.6593   0.9455   0.375
V22     V     0.6593   0.9455   0.875
V23     V     0.6593   0.0545   0.125
V24     V     0.6593   0.0545   0.625
Er25     Er     0.1594   0.7255   0.125
Er26     Er     0.1594   0.7255   0.625
Er27     Er     0.3406   0.7745   0.375
Er28     Er     0.3406   0.7745   0.875
Er29     Er     0.8406   0.7255   0.125
Er30     Er     0.8406   0.7255   0.625
Er31     Er     0.6593   0.7745   0.375
Er32     Er     0.6593   0.7745   0.875
loop_
_geom_bond_atom_site_label_1
_geom_bond_atom_site_label_2
_geom_bond_distance
_geom_bond_site_symmetry_2
_ccdc_geom_bond_type
V1     Er25    10.0   .     S
V1     V3    10.0   .     S
V1     V4    10.0   1_554     S
V1     V7    10.0   1_455     S
V2     Er26    10.0   .     S
V2     V4    10.0   .     S
V2     V3    10.0   .     S
V2     V8    10.0   1_455     S
V3     Er9    10.0   .     S
V3     V5    10.0   1_455     S
V4     Er10    10.0   .     S
V4     V1    10.0   1_556     S
V4     V6    10.0   1_455     S
V5     Er13    10.0   .     S
V5     V7    10.0   .     S
V5     V8    10.0   .     S
V5     V3    10.0   1_655     S
V6     Er14    10.0   .     S
V6     V8    10.0   .     S
V6     V7    10.0   1_556     S
V6     V4    10.0   1_655     S
V7     Er29    10.0   .     S
V7     V6    10.0   1_554     S
V7     V1    10.0   1_655     S
V8     Er30    10.0   .     S
V8     V2    10.0   1_655     S
Er9     Er11    10.0   .     S
Er9     Er12    10.0   .     S
Er9     Er13    10.0   1_455     S
Er10     Er12    10.0   .     S
Er10     Er11    10.0   1_556     S
Er10     Er14    10.0   1_455     S
Er11     Er10    10.0   1_554     S
Er11     Er15    10.0   .     S
Er11     V19    10.0   .     S
Er12     Er16    10.0   .     S
Er12     V20    10.0   .     S
Er13     Er15    10.0   .     S
Er13     Er16    10.0   .     S
Er13     Er9    10.0   1_655     S
Er14     Er16    10.0   .     S
Er14     Er15    10.0   1_556     S
Er14     Er10    10.0   1_655     S
Er15     Er14    10.0   1_554     S
Er15     V23    10.0   .     S
Er16     V24    10.0   .     S
V17     Er27    10.0   .     S
V17     V20    10.0   1_565     S
V17     V19    10.0   1_565     S
V17     V21    10.0   .     S
V18     Er28    10.0   .     S
V18     V19    10.0   1_566     S
V18     V20    10.0   1_565     S
V18     V22    10.0   .     S
V19     V18    10.0   1_544     S
V19     V17    10.0   1_545     S
V19     V23    10.0   .     S
V20     V17    10.0   1_545     S
V20     V18    10.0   1_545     S
V20     V24    10.0   .     S
V21     Er31    10.0   .     S
V21     V23    10.0   1_565     S
V21     V24    10.0   1_565     S
V22     Er32    10.0   .     S
V22     V24    10.0   1_565     S
V22     V23    10.0   1_566     S
V23     V21    10.0   1_545     S
V23     V22    10.0   1_544     S
V24     V22    10.0   1_545     S
V24     V21    10.0   1_545     S
Er25     Er27    10.0   .     S
Er25     Er28    10.0   1_554     S
Er25     Er29    10.0   1_455     S
Er26     Er28    10.0   .     S
Er26     Er27    10.0   .     S
Er26     Er30    10.0   1_455     S
Er27     Er31    10.0   .     S
Er28     Er25    10.0   1_556     S
Er28     Er32    10.0   .     S
Er29     Er31    10.0   .     S
Er29     Er32    10.0   1_554     S
Er29     Er25    10.0   1_655     S
Er30     Er32    10.0   .     S
Er30     Er31    10.0   .     S
Er30     Er26    10.0   1_655     S
Er32     Er29    10.0   1_556     S
