data_baz
_audit_creation_date              2019-12-31
_audit_creation_method            'Pymatgen'
_symmetry_space_group_name_H-M    'P1'
_symmetry_Int_Tables_number       1
loop_
_symmetry_equiv_pos_as_xyz
  x,y,z
_cell_length_a                    50.0
_cell_length_b                    50.0
_cell_length_c                    40.0
_cell_angle_alpha                 90.0
_cell_angle_beta                 90.0
_cell_angle_gamma                 120.0
loop_
_atom_site_label
_atom_site_type_symbol
_atom_site_fract_x
_atom_site_fract_y
_atom_site_fract_z
Er1     Er     0.0   0.5   0.0
Er2     Er     0.0   0.5   0.5
Er3     Er     0.0   0.5   0.25
Er4     Er     0.0   0.5   0.75
V5     V     0.4   0.6   0.375
V6     V     0.4   0.6   0.875
V7     V     0.2   0.6   0.375
V8     V     0.2   0.6   0.875
Er9     Er     0.5   0.0   0.25
Er10     Er     0.5   0.0   0.75
Er11     Er     0.5   0.0   0.0
Er12     Er     0.5   0.0   0.5
V13     V     0.6   0.4   0.125
V14     V     0.6   0.4   0.625
V15     V     0.6   0.2   0.125
V16     V     0.6   0.2   0.625
V17     V     0.8   0.4   0.125
V18     V     0.8   0.4   0.625
Er19     Er     0.5   0.5   0.25
Er20     Er     0.5   0.5   0.75
Er21     Er     0.5   0.5   0.0
Er22     Er     0.5   0.5   0.5
V23     V     0.4   0.8   0.375
V24     V     0.4   0.8   0.875
loop_
_geom_bond_atom_site_label_1
_geom_bond_atom_site_label_2
_geom_bond_distance
_geom_bond_site_symmetry_2
_ccdc_geom_bond_type
Er1     Er3    10.0   .     S
Er1     Er4    10.0   1_554     S
Er1     V17    10.0   1_455     S
Er1     V8    10.0   1_554     S
Er2     Er4    10.0   .     S
Er2     Er3    10.0   .     S
Er2     V18    10.0   1_455     S
Er2     V7    10.0   .     S
Er3     V17    10.0   1_455     S
Er3     V7    10.0   .     S
Er4     Er1    10.0   1_556     S
Er4     V18    10.0   1_455     S
Er4     V8    10.0   .     S
V5     Er22    10.0   .     S
V5     Er19    10.0   .     S
V5     V23    10.0   .     S
V5     V7    10.0   .     S
V6     Er21    10.0   1_556     S
V6     Er20    10.0   .     S
V6     V24    10.0   .     S
V6     V8    10.0   .     S
V7     V23    10.0   .     S
V8     Er1    10.0   1_556     S
V8     V24    10.0   .     S
Er9     V23    10.0   1_545     S
Er9     Er12    10.0   .     S
Er9     V15    10.0   .     S
Er9     Er11    10.0   .     S
Er10     V24    10.0   1_545     S
Er10     Er11    10.0   1_556     S
Er10     V16    10.0   .     S
Er10     Er12    10.0   .     S
Er11     Er10    10.0   1_554     S
Er11     V24    10.0   1_544     S
Er11     V15    10.0   .     S
Er12     V23    10.0   1_545     S
Er12     V16    10.0   .     S
V13     Er21    10.0   .     S
V13     Er19    10.0   .     S
V13     V15    10.0   .     S
V13     V17    10.0   .     S
V14     Er22    10.0   .     S
V14     Er20    10.0   .     S
V14     V16    10.0   .     S
V14     V18    10.0   .     S
V15     V17    10.0   .     S
V16     V18    10.0   .     S
V17     Er1    10.0   1_655     S
V17     Er3    10.0   1_655     S
V18     Er2    10.0   1_655     S
V18     Er4    10.0   1_655     S
Er19     Er21    10.0   .     S
Er19     Er22    10.0   .     S
Er20     Er22    10.0   .     S
Er20     Er21    10.0   1_556     S
Er21     V6    10.0   1_554     S
Er21     Er20    10.0   1_554     S
V23     Er9    10.0   1_565     S
V23     Er12    10.0   1_565     S
V24     Er10    10.0   1_565     S
V24     Er11    10.0   1_566     S
