data_bba
_audit_creation_date              2019-12-31
_audit_creation_method            'Pymatgen'
_symmetry_space_group_name_H-M    'P1'
_symmetry_Int_Tables_number       1
loop_
_symmetry_equiv_pos_as_xyz
  x,y,z
_cell_length_a                    37.5599
_cell_length_b                    37.5599
_cell_length_c                    32.2618
_cell_angle_alpha                 90.0
_cell_angle_beta                 90.0
_cell_angle_gamma                 120.0
loop_
_atom_site_label
_atom_site_type_symbol
_atom_site_fract_x
_atom_site_fract_y
_atom_site_fract_z
Er1     Er     0.8463   0.6926   0.25
Er2     Er     0.8463   0.6926   0.75
Er3     Er     0.1537   0.3074   0.25
Er4     Er     0.1537   0.3074   0.75
Er5     Er     0.8463   0.1537   0.25
Er6     Er     0.8463   0.1537   0.75
Er7     Er     0.6926   0.8463   0.25
Er8     Er     0.6926   0.8463   0.75
V9     V     0.4892   0.2446   0.0
V10     V     0.4892   0.2446   0.5
V11     V     0.7554   0.2446   0.0
V12     V     0.7554   0.2446   0.5
V13     V     0.7554   0.5108   0.0
V14     V     0.7554   0.5108   0.5
Er15     Er     0.1537   0.8463   0.25
Er16     Er     0.1537   0.8463   0.75
Er17     Er     0.3074   0.1537   0.25
Er18     Er     0.3074   0.1537   0.75
V19     V     0.2446   0.4892   0.0
V20     V     0.2446   0.4892   0.5
V21     V     0.2446   0.7554   0.0
V22     V     0.2446   0.7554   0.5
V23     V     0.5108   0.7554   0.0
V24     V     0.5108   0.7554   0.5
loop_
_geom_bond_atom_site_label_1
_geom_bond_atom_site_label_2
_geom_bond_distance
_geom_bond_site_symmetry_2
_ccdc_geom_bond_type
Er1     Er7    10.0   .     S
Er1     V13    10.0   .     S
Er1     V14    10.0   .     S
Er1     Er15    10.0   1_655     S
Er2     Er8    10.0   .     S
Er2     V14    10.0   .     S
Er2     V13    10.0   1_556     S
Er2     Er16    10.0   1_655     S
Er3     Er17    10.0   .     S
Er3     Er5    10.0   1_455     S
Er3     V19    10.0   .     S
Er3     V20    10.0   .     S
Er4     Er18    10.0   .     S
Er4     Er6    10.0   1_455     S
Er4     V20    10.0   .     S
Er4     V19    10.0   1_556     S
Er5     Er7    10.0   1_545     S
Er5     Er3    10.0   1_655     S
Er5     V12    10.0   .     S
Er5     V11    10.0   .     S
Er6     Er8    10.0   1_545     S
Er6     Er4    10.0   1_655     S
Er6     V11    10.0   1_556     S
Er6     V12    10.0   .     S
Er7     Er5    10.0   1_565     S
Er7     V23    10.0   .     S
Er7     V24    10.0   .     S
Er8     Er6    10.0   1_565     S
Er8     V24    10.0   .     S
Er8     V23    10.0   1_556     S
V9     V11    10.0   .     S
V9     V13    10.0   .     S
V9     Er18    10.0   1_554     S
V9     Er17    10.0   .     S
V10     V12    10.0   .     S
V10     V14    10.0   .     S
V10     Er17    10.0   .     S
V10     Er18    10.0   .     S
V11     V13    10.0   .     S
V11     Er6    10.0   1_554     S
V12     V14    10.0   .     S
V13     Er2    10.0   1_554     S
Er15     Er17    10.0   1_565     S
Er15     Er1    10.0   1_455     S
Er15     V21    10.0   .     S
Er15     V22    10.0   .     S
Er16     Er18    10.0   1_565     S
Er16     Er2    10.0   1_455     S
Er16     V22    10.0   .     S
Er16     V21    10.0   1_556     S
Er17     Er15    10.0   1_545     S
Er18     V9    10.0   1_556     S
Er18     Er16    10.0   1_545     S
V19     V21    10.0   .     S
V19     V23    10.0   .     S
V19     Er4    10.0   1_554     S
V20     V22    10.0   .     S
V20     V24    10.0   .     S
V21     V23    10.0   .     S
V21     Er16    10.0   1_554     S
V22     V24    10.0   .     S
V23     Er8    10.0   1_554     S
