data_bbe
_audit_creation_date              2019-12-31
_audit_creation_method            'Pymatgen'
_symmetry_space_group_name_H-M    'P1'
_symmetry_Int_Tables_number       1
loop_
_symmetry_equiv_pos_as_xyz
  x,y,z
_cell_length_a                    37.347
_cell_length_b                    29.4178
_cell_length_c                    47.8175
_cell_angle_alpha                 90.0
_cell_angle_beta                 90.0
_cell_angle_gamma                 90.0
loop_
_atom_site_label
_atom_site_type_symbol
_atom_site_fract_x
_atom_site_fract_y
_atom_site_fract_z
V1     V     0.25   0.125   0.0708
V2     V     0.25   0.625   0.0708
V3     V     0.75   0.125   0.0708
V4     V     0.75   0.625   0.0708
Er5     Er     0.25   0.125   0.7874
Er6     Er     0.25   0.625   0.7874
Er7     Er     0.75   0.125   0.7874
Er8     Er     0.75   0.625   0.7874
V9     V     0.25   0.375   0.9292
V10     V     0.25   0.875   0.9292
V11     V     0.75   0.375   0.9292
V12     V     0.75   0.875   0.9292
Er13     Er     0.25   0.375   0.2126
Er14     Er     0.25   0.875   0.2126
Er15     Er     0.75   0.375   0.2126
Er16     Er     0.75   0.875   0.2126
V17     V     0.0   0.375   0.5709
V18     V     0.0   0.875   0.5709
V19     V     0.5   0.375   0.5709
V20     V     0.5   0.875   0.5709
V21     V     0.0   0.125   0.4292
V22     V     0.0   0.625   0.4292
V23     V     0.5   0.125   0.4292
V24     V     0.5   0.625   0.4292
Er25     Er     0.0   0.375   0.2874
Er26     Er     0.0   0.875   0.2874
Er27     Er     0.5   0.375   0.2874
Er28     Er     0.5   0.875   0.2874
Er29     Er     0.0   0.125   0.7126
Er30     Er     0.0   0.625   0.7126
Er31     Er     0.5   0.125   0.7126
Er32     Er     0.5   0.625   0.7126
loop_
_geom_bond_atom_site_label_1
_geom_bond_atom_site_label_2
_geom_bond_distance
_geom_bond_site_symmetry_2
_ccdc_geom_bond_type
V1     V10    10.0   1_544     S
V1     Er14    10.0   1_545     S
V1     Er13    10.0   .     S
V1     V9    10.0   1_554     S
V2     V9    10.0   1_554     S
V2     Er13    10.0   .     S
V2     Er14    10.0   .     S
V2     V10    10.0   1_554     S
V3     V12    10.0   1_544     S
V3     Er16    10.0   1_545     S
V3     Er15    10.0   .     S
V3     V11    10.0   1_554     S
V4     V11    10.0   1_554     S
V4     Er15    10.0   .     S
V4     Er16    10.0   .     S
V4     V12    10.0   1_554     S
Er5     V10    10.0   1_545     S
Er5     V9    10.0   .     S
Er5     Er31    10.0   .     S
Er5     Er29    10.0   .     S
Er6     V9    10.0   .     S
Er6     V10    10.0   .     S
Er6     Er32    10.0   .     S
Er6     Er30    10.0   .     S
Er7     V12    10.0   1_545     S
Er7     V11    10.0   .     S
Er7     Er29    10.0   1_655     S
Er7     Er31    10.0   .     S
Er8     V11    10.0   .     S
Er8     V12    10.0   .     S
Er8     Er30    10.0   1_655     S
Er8     Er32    10.0   .     S
V9     V2    10.0   1_556     S
V9     V1    10.0   1_556     S
V10     V1    10.0   1_566     S
V10     V2    10.0   1_556     S
V10     Er5    10.0   1_565     S
V11     V4    10.0   1_556     S
V11     V3    10.0   1_556     S
V12     V3    10.0   1_566     S
V12     V4    10.0   1_556     S
V12     Er7    10.0   1_565     S
Er13     Er27    10.0   .     S
Er13     Er25    10.0   .     S
Er14     V1    10.0   1_565     S
Er14     Er28    10.0   .     S
Er14     Er26    10.0   .     S
Er15     Er25    10.0   1_655     S
Er15     Er27    10.0   .     S
Er16     V3    10.0   1_565     S
Er16     Er26    10.0   1_655     S
Er16     Er28    10.0   .     S
V17     Er29    10.0   .     S
V17     Er30    10.0   .     S
V17     V21    10.0   .     S
V17     V22    10.0   .     S
V18     Er30    10.0   .     S
V18     Er29    10.0   1_565     S
V18     V22    10.0   .     S
V18     V21    10.0   1_565     S
V19     Er31    10.0   .     S
V19     Er32    10.0   .     S
V19     V23    10.0   .     S
V19     V24    10.0   .     S
V20     Er32    10.0   .     S
V20     Er31    10.0   1_565     S
V20     V24    10.0   .     S
V20     V23    10.0   1_565     S
V21     Er25    10.0   .     S
V21     Er26    10.0   1_545     S
V21     V18    10.0   1_545     S
V22     Er26    10.0   .     S
V22     Er25    10.0   .     S
V23     Er27    10.0   .     S
V23     Er28    10.0   1_545     S
V23     V20    10.0   1_545     S
V24     Er28    10.0   .     S
V24     Er27    10.0   .     S
Er25     Er15    10.0   1_455     S
Er26     Er16    10.0   1_455     S
Er26     V21    10.0   1_565     S
Er28     V23    10.0   1_565     S
Er29     Er7    10.0   1_455     S
Er29     V18    10.0   1_545     S
Er30     Er8    10.0   1_455     S
Er31     V20    10.0   1_545     S
