data_bbf
_audit_creation_date              2019-12-31
_audit_creation_method            'Pymatgen'
_symmetry_space_group_name_H-M    'P1'
_symmetry_Int_Tables_number       1
loop_
_symmetry_equiv_pos_as_xyz
  x,y,z
_cell_length_a                    28.2151
_cell_length_b                    34.6246
_cell_length_c                    32.7548
_cell_angle_alpha                 90.0
_cell_angle_beta                 90.0
_cell_angle_gamma                 90.0
loop_
_atom_site_label
_atom_site_type_symbol
_atom_site_fract_x
_atom_site_fract_y
_atom_site_fract_z
V1     V     0.0   0.0   0.0
V2     V     0.0   0.0   0.5
V3     V     0.0   0.5   0.0
V4     V     0.0   0.5   0.5
Er5     Er     0.25   0.3329   0.125
Er6     Er     0.25   0.3329   0.625
Er7     Er     0.25   0.8329   0.125
Er8     Er     0.25   0.8329   0.625
Er9     Er     0.25   0.1671   0.375
Er10     Er     0.25   0.1671   0.875
Er11     Er     0.25   0.6671   0.375
Er12     Er     0.25   0.6671   0.875
V13     V     0.5   0.0   0.25
V14     V     0.5   0.0   0.75
V15     V     0.5   0.5   0.25
V16     V     0.5   0.5   0.75
Er17     Er     0.75   0.3329   0.125
Er18     Er     0.75   0.3329   0.625
Er19     Er     0.75   0.8329   0.125
Er20     Er     0.75   0.8329   0.625
Er21     Er     0.75   0.1671   0.375
Er22     Er     0.75   0.1671   0.875
Er23     Er     0.75   0.6671   0.375
Er24     Er     0.75   0.6671   0.875
loop_
_geom_bond_atom_site_label_1
_geom_bond_atom_site_label_2
_geom_bond_distance
_geom_bond_site_symmetry_2
_ccdc_geom_bond_type
V1     Er10    10.0   1_554     S
V1     Er7    10.0   1_545     S
V1     Er19    10.0   1_445     S
V1     Er22    10.0   1_454     S
V2     Er9    10.0   .     S
V2     Er8    10.0   1_545     S
V2     Er20    10.0   1_445     S
V2     Er21    10.0   1_455     S
V3     Er12    10.0   1_554     S
V3     Er5    10.0   .     S
V3     Er17    10.0   1_455     S
V3     Er24    10.0   1_454     S
V4     Er11    10.0   .     S
V4     Er6    10.0   .     S
V4     Er18    10.0   1_455     S
V4     Er23    10.0   1_455     S
Er5     Er10    10.0   1_554     S
Er5     Er9    10.0   .     S
Er5     V15    10.0   .     S
Er6     Er9    10.0   .     S
Er6     Er10    10.0   .     S
Er6     V16    10.0   .     S
Er7     V1    10.0   1_565     S
Er7     Er12    10.0   1_554     S
Er7     Er11    10.0   .     S
Er7     V13    10.0   1_565     S
Er8     V2    10.0   1_565     S
Er8     Er11    10.0   .     S
Er8     Er12    10.0   .     S
Er8     V14    10.0   1_565     S
Er9     V13    10.0   .     S
Er10     V1    10.0   1_556     S
Er10     Er5    10.0   1_556     S
Er10     V14    10.0   .     S
Er11     V15    10.0   .     S
Er12     V3    10.0   1_556     S
Er12     Er7    10.0   1_556     S
Er12     V16    10.0   .     S
V13     Er7    10.0   1_545     S
V13     Er21    10.0   .     S
V13     Er19    10.0   1_545     S
V14     Er8    10.0   1_545     S
V14     Er22    10.0   .     S
V14     Er20    10.0   1_545     S
V15     Er23    10.0   .     S
V15     Er17    10.0   .     S
V16     Er24    10.0   .     S
V16     Er18    10.0   .     S
Er17     V3    10.0   1_655     S
Er17     Er22    10.0   1_554     S
Er17     Er21    10.0   .     S
Er18     V4    10.0   1_655     S
Er18     Er21    10.0   .     S
Er18     Er22    10.0   .     S
Er19     V1    10.0   1_665     S
Er19     V13    10.0   1_565     S
Er19     Er24    10.0   1_554     S
Er19     Er23    10.0   .     S
Er20     V2    10.0   1_665     S
Er20     V14    10.0   1_565     S
Er20     Er23    10.0   .     S
Er20     Er24    10.0   .     S
Er21     V2    10.0   1_655     S
Er22     V1    10.0   1_656     S
Er22     Er17    10.0   1_556     S
Er23     V4    10.0   1_655     S
Er24     V3    10.0   1_656     S
Er24     Er19    10.0   1_556     S
