data_bbg
_audit_creation_date              2019-12-31
_audit_creation_method            'Pymatgen'
_symmetry_space_group_name_H-M    'P1'
_symmetry_Int_Tables_number       1
loop_
_symmetry_equiv_pos_as_xyz
  x,y,z
_cell_length_a                    32.1746
_cell_length_b                    35.7336
_cell_length_c                    27.7909
_cell_angle_alpha                 90.0
_cell_angle_beta                 90.0
_cell_angle_gamma                 90.0
loop_
_atom_site_label
_atom_site_type_symbol
_atom_site_fract_x
_atom_site_fract_y
_atom_site_fract_z
Er1     Er     0.375   0.1669   0.5
Er2     Er     0.375   0.6669   0.5
Er3     Er     0.875   0.1669   0.5
Er4     Er     0.875   0.6669   0.5
Er5     Er     0.125   0.3331   0.5
Er6     Er     0.125   0.8331   0.5
Er7     Er     0.625   0.3331   0.5
Er8     Er     0.625   0.8331   0.5
Er9     Er     0.125   0.1669   0.0
Er10     Er     0.125   0.6669   0.0
Er11     Er     0.625   0.1669   0.0
Er12     Er     0.625   0.6669   0.0
Er13     Er     0.375   0.3331   0.0
Er14     Er     0.375   0.8331   0.0
Er15     Er     0.875   0.3331   0.0
Er16     Er     0.875   0.8331   0.0
V17     V     0.0   0.0   0.75
V18     V     0.0   0.5   0.75
V19     V     0.5   0.0   0.75
V20     V     0.5   0.5   0.75
V21     V     0.0   0.0   0.25
V22     V     0.0   0.5   0.25
V23     V     0.5   0.0   0.25
V24     V     0.5   0.5   0.25
loop_
_geom_bond_atom_site_label_1
_geom_bond_atom_site_label_2
_geom_bond_distance
_geom_bond_site_symmetry_2
_ccdc_geom_bond_type
Er1     Er5    10.0   .     S
Er1     Er7    10.0   .     S
Er1     V23    10.0   .     S
Er1     V19    10.0   .     S
Er2     Er6    10.0   .     S
Er2     Er8    10.0   .     S
Er2     V24    10.0   .     S
Er2     V20    10.0   .     S
Er3     Er7    10.0   .     S
Er3     Er5    10.0   1_655     S
Er3     V21    10.0   1_655     S
Er3     V17    10.0   1_655     S
Er4     Er8    10.0   .     S
Er4     Er6    10.0   1_655     S
Er4     V22    10.0   1_655     S
Er4     V18    10.0   1_655     S
Er5     Er3    10.0   1_455     S
Er5     V22    10.0   .     S
Er5     V18    10.0   .     S
Er6     Er4    10.0   1_455     S
Er6     V21    10.0   1_565     S
Er6     V17    10.0   1_565     S
Er7     V24    10.0   .     S
Er7     V20    10.0   .     S
Er8     V23    10.0   1_565     S
Er8     V19    10.0   1_565     S
Er9     Er13    10.0   .     S
Er9     Er15    10.0   1_455     S
Er9     V17    10.0   1_554     S
Er9     V21    10.0   .     S
Er10     Er14    10.0   .     S
Er10     Er16    10.0   1_455     S
Er10     V18    10.0   1_554     S
Er10     V22    10.0   .     S
Er11     Er15    10.0   .     S
Er11     Er13    10.0   .     S
Er11     V19    10.0   1_554     S
Er11     V23    10.0   .     S
Er12     Er16    10.0   .     S
Er12     Er14    10.0   .     S
Er12     V20    10.0   1_554     S
Er12     V24    10.0   .     S
Er13     V20    10.0   1_554     S
Er13     V24    10.0   .     S
Er14     V19    10.0   1_564     S
Er14     V23    10.0   1_565     S
Er15     Er9    10.0   1_655     S
Er15     V18    10.0   1_654     S
Er15     V22    10.0   1_655     S
Er16     Er10    10.0   1_655     S
Er16     V17    10.0   1_664     S
Er16     V21    10.0   1_665     S
V17     Er3    10.0   1_455     S
V17     Er6    10.0   1_545     S
V17     Er16    10.0   1_446     S
V17     Er9    10.0   1_556     S
V18     Er4    10.0   1_455     S
V18     Er15    10.0   1_456     S
V18     Er10    10.0   1_556     S
V19     Er8    10.0   1_545     S
V19     Er14    10.0   1_546     S
V19     Er11    10.0   1_556     S
V20     Er13    10.0   1_556     S
V20     Er12    10.0   1_556     S
V21     Er6    10.0   1_545     S
V21     Er3    10.0   1_455     S
V21     Er16    10.0   1_445     S
V22     Er4    10.0   1_455     S
V22     Er15    10.0   1_455     S
V23     Er8    10.0   1_545     S
V23     Er14    10.0   1_545     S
