data_bbk
_audit_creation_date              2019-12-31
_audit_creation_method            'Pymatgen'
_symmetry_space_group_name_H-M    'P1'
_symmetry_Int_Tables_number       1
loop_
_symmetry_equiv_pos_as_xyz
  x,y,z
_cell_length_a                    28.516
_cell_length_b                    35.6868
_cell_length_c                    32.6786
_cell_angle_alpha                 90.0
_cell_angle_beta                 90.0
_cell_angle_gamma                 90.0
loop_
_atom_site_label
_atom_site_type_symbol
_atom_site_fract_x
_atom_site_fract_y
_atom_site_fract_z
V1     V     0.8989   0.0   0.0
V2     V     0.8989   0.0   0.5
V3     V     0.8989   0.5   0.0
V4     V     0.8989   0.5   0.5
V5     V     0.1011   0.0   0.25
V6     V     0.1011   0.0   0.75
V7     V     0.1011   0.5   0.25
V8     V     0.1011   0.5   0.75
Er9     Er     0.6632   0.125   0.1809
Er10     Er     0.6632   0.125   0.6809
Er11     Er     0.6632   0.625   0.1809
Er12     Er     0.6632   0.625   0.6809
Er13     Er     0.3368   0.125   0.0691
Er14     Er     0.3368   0.125   0.5691
Er15     Er     0.3368   0.625   0.0691
Er16     Er     0.3368   0.625   0.5691
Er17     Er     0.6632   0.375   0.3191
Er18     Er     0.6632   0.375   0.8191
Er19     Er     0.6632   0.875   0.3191
Er20     Er     0.6632   0.875   0.8191
Er21     Er     0.3368   0.375   0.4309
Er22     Er     0.3368   0.375   0.9309
Er23     Er     0.3368   0.875   0.4309
Er24     Er     0.3368   0.875   0.9309
loop_
_geom_bond_atom_site_label_1
_geom_bond_atom_site_label_2
_geom_bond_distance
_geom_bond_site_symmetry_2
_ccdc_geom_bond_type
V1     Er9    10.0   .     S
V1     Er20    10.0   1_544     S
V1     V5    10.0   1_655     S
V1     V6    10.0   1_654     S
V2     Er10    10.0   .     S
V2     Er19    10.0   1_545     S
V2     V6    10.0   1_655     S
V2     V5    10.0   1_655     S
V3     Er11    10.0   .     S
V3     Er18    10.0   1_554     S
V3     V7    10.0   1_655     S
V3     V8    10.0   1_654     S
V4     Er12    10.0   .     S
V4     Er17    10.0   .     S
V4     V8    10.0   1_655     S
V4     V7    10.0   1_655     S
V5     Er13    10.0   .     S
V5     Er23    10.0   1_545     S
V5     V1    10.0   1_455     S
V5     V2    10.0   1_455     S
V6     Er14    10.0   .     S
V6     Er24    10.0   1_545     S
V6     V2    10.0   1_455     S
V6     V1    10.0   1_456     S
V7     Er15    10.0   .     S
V7     Er21    10.0   .     S
V7     V3    10.0   1_455     S
V7     V4    10.0   1_455     S
V8     Er16    10.0   .     S
V8     Er22    10.0   .     S
V8     V4    10.0   1_455     S
V8     V3    10.0   1_456     S
Er9     Er13    10.0   .     S
Er9     Er19    10.0   1_545     S
Er9     Er17    10.0   .     S
Er10     Er14    10.0   .     S
Er10     Er20    10.0   1_545     S
Er10     Er18    10.0   .     S
Er11     Er15    10.0   .     S
Er11     Er17    10.0   .     S
Er11     Er19    10.0   .     S
Er12     Er16    10.0   .     S
Er12     Er18    10.0   .     S
Er12     Er20    10.0   .     S
Er13     Er22    10.0   1_554     S
Er13     Er24    10.0   1_544     S
Er14     Er21    10.0   .     S
Er14     Er23    10.0   1_545     S
Er15     Er24    10.0   1_554     S
Er15     Er22    10.0   1_554     S
Er16     Er23    10.0   .     S
Er16     Er21    10.0   .     S
Er17     Er21    10.0   .     S
Er18     V3    10.0   1_556     S
Er18     Er22    10.0   .     S
Er19     V2    10.0   1_565     S
Er19     Er23    10.0   .     S
Er19     Er9    10.0   1_565     S
Er20     V1    10.0   1_566     S
Er20     Er24    10.0   .     S
Er20     Er10    10.0   1_565     S
Er22     Er13    10.0   1_556     S
Er22     Er15    10.0   1_556     S
Er23     Er14    10.0   1_565     S
Er23     V5    10.0   1_565     S
Er24     Er15    10.0   1_556     S
Er24     Er13    10.0   1_566     S
Er24     V6    10.0   1_565     S
