data_bbl
_audit_creation_date              2019-12-31
_audit_creation_method            'Pymatgen'
_symmetry_space_group_name_H-M    'P1'
_symmetry_Int_Tables_number       1
loop_
_symmetry_equiv_pos_as_xyz
  x,y,z
_cell_length_a                    40.9246
_cell_length_b                    30.5906
_cell_length_c                    55.4767
_cell_angle_alpha                 90.0
_cell_angle_beta                 90.0
_cell_angle_gamma                 90.0
loop_
_atom_site_label
_atom_site_type_symbol
_atom_site_fract_x
_atom_site_fract_y
_atom_site_fract_z
V1     V     0.25   0.375   0.8081
V2     V     0.25   0.875   0.8081
V3     V     0.75   0.375   0.8081
V4     V     0.75   0.875   0.8081
V5     V     0.25   0.125   0.6919
V6     V     0.25   0.625   0.6919
V7     V     0.75   0.125   0.6919
V8     V     0.75   0.625   0.6919
Er9     Er     0.3287   0.0   0.4166
Er10     Er     0.3287   0.5   0.4166
Er11     Er     0.8287   0.0   0.4166
Er12     Er     0.8287   0.5   0.4166
Er13     Er     0.4213   0.0   0.5834
Er14     Er     0.4213   0.5   0.5834
Er15     Er     0.9213   0.0   0.5834
Er16     Er     0.9213   0.5   0.5834
Er17     Er     0.4213   0.0   0.9166
Er18     Er     0.4213   0.5   0.9166
Er19     Er     0.9213   0.0   0.9166
Er20     Er     0.9213   0.5   0.9166
Er21     Er     0.3287   0.0   0.0834
Er22     Er     0.3287   0.5   0.0834
Er23     Er     0.8287   0.0   0.0834
Er24     Er     0.8287   0.5   0.0834
V25     V     0.0   0.125   0.3081
V26     V     0.0   0.625   0.3081
V27     V     0.5   0.125   0.3081
V28     V     0.5   0.625   0.3081
V29     V     0.0   0.375   0.1919
V30     V     0.0   0.875   0.1919
V31     V     0.5   0.375   0.1919
V32     V     0.5   0.875   0.1919
Er33     Er     0.0787   0.25   0.9166
Er34     Er     0.0787   0.75   0.9166
Er35     Er     0.5787   0.25   0.9166
Er36     Er     0.5787   0.75   0.9166
Er37     Er     0.1713   0.25   0.0834
Er38     Er     0.1713   0.75   0.0834
Er39     Er     0.6713   0.25   0.0834
Er40     Er     0.6713   0.75   0.0834
Er41     Er     0.1713   0.25   0.4166
Er42     Er     0.1713   0.75   0.4166
Er43     Er     0.6713   0.25   0.4166
Er44     Er     0.6713   0.75   0.4166
Er45     Er     0.0787   0.25   0.5834
Er46     Er     0.0787   0.75   0.5834
Er47     Er     0.5787   0.25   0.5834
Er48     Er     0.5787   0.75   0.5834
loop_
_geom_bond_atom_site_label_1
_geom_bond_atom_site_label_2
_geom_bond_distance
_geom_bond_site_symmetry_2
_ccdc_geom_bond_type
V1     V6    10.0   .     S
V1     V5    10.0   .     S
V1     Er18    10.0   .     S
V1     Er33    10.0   .     S
V2     V5    10.0   1_565     S
V2     V6    10.0   .     S
V2     Er17    10.0   1_565     S
V2     Er34    10.0   .     S
V3     V8    10.0   .     S
V3     V7    10.0   .     S
V3     Er20    10.0   .     S
V3     Er35    10.0   .     S
V4     V7    10.0   1_565     S
V4     V8    10.0   .     S
V4     Er19    10.0   1_565     S
V4     Er36    10.0   .     S
V5     V2    10.0   1_545     S
V5     Er13    10.0   .     S
V5     Er45    10.0   .     S
V6     Er14    10.0   .     S
V6     Er46    10.0   .     S
V7     V4    10.0   1_545     S
V7     Er15    10.0   .     S
V7     Er47    10.0   .     S
V8     Er16    10.0   .     S
V8     Er48    10.0   .     S
Er9     Er13    10.0   .     S
Er9     V27    10.0   .     S
Er9     Er42    10.0   1_545     S
Er9     Er41    10.0   .     S
Er10     Er14    10.0   .     S
Er10     V28    10.0   .     S
Er10     Er41    10.0   .     S
Er10     Er42    10.0   .     S
Er11     Er15    10.0   .     S
Er11     V25    10.0   1_655     S
Er11     Er44    10.0   1_545     S
Er11     Er43    10.0   .     S
Er12     Er16    10.0   .     S
Er12     V26    10.0   1_655     S
Er12     Er43    10.0   .     S
Er12     Er44    10.0   .     S
Er13     Er48    10.0   1_545     S
Er13     Er47    10.0   .     S
Er14     Er47    10.0   .     S
Er14     Er48    10.0   .     S
Er15     Er46    10.0   1_645     S
Er15     Er45    10.0   1_655     S
Er16     Er45    10.0   1_655     S
Er16     Er46    10.0   1_655     S
Er17     Er21    10.0   1_556     S
Er17     V2    10.0   1_545     S
Er17     Er36    10.0   1_545     S
Er17     Er35    10.0   .     S
Er18     Er22    10.0   1_556     S
Er18     Er35    10.0   .     S
Er18     Er36    10.0   .     S
Er19     Er23    10.0   1_556     S
Er19     V4    10.0   1_545     S
Er19     Er34    10.0   1_645     S
Er19     Er33    10.0   1_655     S
Er20     Er24    10.0   1_556     S
Er20     Er33    10.0   1_655     S
Er20     Er34    10.0   1_655     S
Er21     Er17    10.0   1_554     S
Er21     V32    10.0   1_545     S
Er21     Er38    10.0   1_545     S
Er21     Er37    10.0   .     S
Er22     Er18    10.0   1_554     S
Er22     V31    10.0   .     S
Er22     Er37    10.0   .     S
Er22     Er38    10.0   .     S
Er23     Er19    10.0   1_554     S
Er23     V30    10.0   1_645     S
Er23     Er40    10.0   1_545     S
Er23     Er39    10.0   .     S
Er24     Er20    10.0   1_554     S
Er24     V29    10.0   1_655     S
Er24     Er39    10.0   .     S
Er24     Er40    10.0   .     S
V25     V30    10.0   1_545     S
V25     V29    10.0   .     S
V25     Er41    10.0   .     S
V25     Er11    10.0   1_455     S
V26     V29    10.0   .     S
V26     V30    10.0   .     S
V26     Er42    10.0   .     S
V26     Er12    10.0   1_455     S
V27     V32    10.0   1_545     S
V27     V31    10.0   .     S
V27     Er43    10.0   .     S
V28     V31    10.0   .     S
V28     V32    10.0   .     S
V28     Er44    10.0   .     S
V29     Er24    10.0   1_455     S
V29     Er37    10.0   .     S
V30     V25    10.0   1_565     S
V30     Er23    10.0   1_465     S
V30     Er38    10.0   .     S
V31     Er39    10.0   .     S
V32     V27    10.0   1_565     S
V32     Er21    10.0   1_565     S
V32     Er40    10.0   .     S
Er33     Er37    10.0   1_556     S
Er33     Er20    10.0   1_455     S
Er33     Er19    10.0   1_455     S
Er34     Er38    10.0   1_556     S
Er34     Er19    10.0   1_465     S
Er34     Er20    10.0   1_455     S
Er35     Er39    10.0   1_556     S
Er36     Er40    10.0   1_556     S
Er36     Er17    10.0   1_565     S
Er37     Er33    10.0   1_554     S
Er38     Er34    10.0   1_554     S
Er38     Er21    10.0   1_565     S
Er39     Er35    10.0   1_554     S
Er40     Er36    10.0   1_554     S
Er40     Er23    10.0   1_565     S
Er41     Er45    10.0   .     S
Er42     Er46    10.0   .     S
Er42     Er9    10.0   1_565     S
Er43     Er47    10.0   .     S
Er44     Er48    10.0   .     S
Er44     Er11    10.0   1_565     S
Er45     Er16    10.0   1_455     S
Er45     Er15    10.0   1_455     S
Er46     Er15    10.0   1_465     S
Er46     Er16    10.0   1_455     S
Er48     Er13    10.0   1_565     S
