data_bbs
_audit_creation_date              2019-12-31
_audit_creation_method            'Pymatgen'
_symmetry_space_group_name_H-M    'P1'
_symmetry_Int_Tables_number       1
loop_
_symmetry_equiv_pos_as_xyz
  x,y,z
_cell_length_a                    38.2882
_cell_length_b                    38.2882
_cell_length_c                    35.845
_cell_angle_alpha                 90.0
_cell_angle_beta                 90.0
_cell_angle_gamma                 120.0
loop_
_atom_site_label
_atom_site_type_symbol
_atom_site_fract_x
_atom_site_fract_y
_atom_site_fract_z
V1     V     0.0   0.4421   0.4167
V2     V     0.0   0.4421   0.9167
V3     V     0.0   0.5579   0.1667
V4     V     0.0   0.5579   0.6667
V5     V     0.4421   0.4421   0.3333
V6     V     0.4421   0.4421   0.8333
V7     V     0.5579   0.5579   0.0833
V8     V     0.5579   0.5579   0.5833
V9     V     0.5579   0.0   0.0
V10     V     0.5579   0.0   0.5
V11     V     0.4421   0.0   0.25
V12     V     0.4421   0.0   0.75
Er13     Er     0.8561   0.7122   0.125
Er14     Er     0.8561   0.7122   0.625
Er15     Er     0.7122   0.8561   0.0417
Er16     Er     0.7122   0.8561   0.5417
Er17     Er     0.1439   0.8561   0.2083
Er18     Er     0.1439   0.8561   0.7083
Er19     Er     0.2878   0.1439   0.2917
Er20     Er     0.2878   0.1439   0.7917
Er21     Er     0.8561   0.1439   0.4583
Er22     Er     0.8561   0.1439   0.9583
Er23     Er     0.1439   0.2878   0.375
Er24     Er     0.1439   0.2878   0.875
loop_
_geom_bond_atom_site_label_1
_geom_bond_atom_site_label_2
_geom_bond_distance
_geom_bond_site_symmetry_2
_ccdc_geom_bond_type
V1     V4    10.0   .     S
V1     V3    10.0   .     S
V1     Er21    10.0   1_455     S
V1     Er23    10.0   .     S
V2     V3    10.0   1_556     S
V2     V4    10.0   .     S
V2     Er22    10.0   1_455     S
V2     Er24    10.0   .     S
V3     V2    10.0   1_554     S
V3     Er17    10.0   .     S
V3     Er13    10.0   1_455     S
V4     Er18    10.0   .     S
V4     Er14    10.0   1_455     S
V5     V8    10.0   .     S
V5     V7    10.0   .     S
V5     Er23    10.0   .     S
V5     Er19    10.0   .     S
V6     V7    10.0   1_556     S
V6     V8    10.0   .     S
V6     Er24    10.0   .     S
V6     Er20    10.0   .     S
V7     V6    10.0   1_554     S
V7     Er13    10.0   .     S
V7     Er15    10.0   .     S
V8     Er14    10.0   .     S
V8     Er16    10.0   .     S
V9     V11    10.0   .     S
V9     V12    10.0   1_554     S
V9     Er15    10.0   1_545     S
V9     Er22    10.0   1_554     S
V10     V12    10.0   .     S
V10     V11    10.0   .     S
V10     Er16    10.0   1_545     S
V10     Er21    10.0   .     S
V11     Er19    10.0   .     S
V11     Er17    10.0   1_545     S
V12     V9    10.0   1_556     S
V12     Er20    10.0   .     S
V12     Er18    10.0   1_545     S
Er13     V3    10.0   1_655     S
Er13     Er15    10.0   .     S
Er13     Er17    10.0   1_655     S
Er14     V4    10.0   1_655     S
Er14     Er16    10.0   .     S
Er14     Er18    10.0   1_655     S
Er15     V9    10.0   1_565     S
Er15     Er22    10.0   1_564     S
Er16     V10    10.0   1_565     S
Er16     Er21    10.0   1_565     S
Er17     V11    10.0   1_565     S
Er17     Er13    10.0   1_455     S
Er17     Er19    10.0   1_565     S
Er18     V12    10.0   1_565     S
Er18     Er14    10.0   1_455     S
Er18     Er20    10.0   1_565     S
Er19     Er23    10.0   .     S
Er19     Er17    10.0   1_545     S
Er20     Er24    10.0   .     S
Er20     Er18    10.0   1_545     S
Er21     Er23    10.0   1_655     S
Er21     Er16    10.0   1_545     S
Er21     V1    10.0   1_655     S
Er22     V9    10.0   1_556     S
Er22     Er24    10.0   1_655     S
Er22     Er15    10.0   1_546     S
Er22     V2    10.0   1_655     S
Er23     Er21    10.0   1_455     S
Er24     Er22    10.0   1_455     S
