data_bbv
_audit_creation_date              2019-12-31
_audit_creation_method            'Pymatgen'
_symmetry_space_group_name_H-M    'P1'
_symmetry_Int_Tables_number       1
loop_
_symmetry_equiv_pos_as_xyz
  x,y,z
_cell_length_a                    45.3795
_cell_length_b                    45.3795
_cell_length_c                    35.1614
_cell_angle_alpha                 90.0
_cell_angle_beta                 90.0
_cell_angle_gamma                 90.0
loop_
_atom_site_label
_atom_site_type_symbol
_atom_site_fract_x
_atom_site_fract_y
_atom_site_fract_z
Er1     Er     0.2872   0.2872   0.25
Er2     Er     0.2872   0.2872   0.75
Er3     Er     0.7128   0.2872   0.25
Er4     Er     0.7128   0.2872   0.75
Er5     Er     0.2872   0.7128   0.25
Er6     Er     0.2872   0.7128   0.75
Er7     Er     0.7128   0.7128   0.25
Er8     Er     0.7128   0.7128   0.75
V9     V     0.6558   0.5   0.25
V10     V     0.6558   0.5   0.75
V11     V     0.5   0.6558   0.25
V12     V     0.5   0.6558   0.75
V13     V     0.3442   0.5   0.25
V14     V     0.3442   0.5   0.75
V15     V     0.5   0.3442   0.25
V16     V     0.5   0.3442   0.75
Er17     Er     0.2128   0.2128   0.0
Er18     Er     0.2128   0.2128   0.5
Er19     Er     0.2128   0.7872   0.0
Er20     Er     0.2128   0.7872   0.5
Er21     Er     0.7872   0.2128   0.0
Er22     Er     0.7872   0.2128   0.5
Er23     Er     0.7872   0.7872   0.0
Er24     Er     0.7872   0.7872   0.5
V25     V     0.0   0.1558   0.0
V26     V     0.0   0.1558   0.5
V27     V     0.1558   0.0   0.0
V28     V     0.1558   0.0   0.5
V29     V     0.0   0.8442   0.0
V30     V     0.0   0.8442   0.5
V31     V     0.8442   0.0   0.0
V32     V     0.8442   0.0   0.5
loop_
_geom_bond_atom_site_label_1
_geom_bond_atom_site_label_2
_geom_bond_distance
_geom_bond_site_symmetry_2
_ccdc_geom_bond_type
Er1     V15    10.0   .     S
Er1     V13    10.0   .     S
Er1     Er17    10.0   .     S
Er1     Er18    10.0   .     S
Er2     V16    10.0   .     S
Er2     V14    10.0   .     S
Er2     Er18    10.0   .     S
Er2     Er17    10.0   1_556     S
Er3     V15    10.0   .     S
Er3     V9    10.0   .     S
Er3     Er21    10.0   .     S
Er3     Er22    10.0   .     S
Er4     V16    10.0   .     S
Er4     V10    10.0   .     S
Er4     Er22    10.0   .     S
Er4     Er21    10.0   1_556     S
Er5     V13    10.0   .     S
Er5     V11    10.0   .     S
Er5     Er19    10.0   .     S
Er5     Er20    10.0   .     S
Er6     V14    10.0   .     S
Er6     V12    10.0   .     S
Er6     Er20    10.0   .     S
Er6     Er19    10.0   1_556     S
Er7     V11    10.0   .     S
Er7     V9    10.0   .     S
Er7     Er23    10.0   .     S
Er7     Er24    10.0   .     S
Er8     V12    10.0   .     S
Er8     V10    10.0   .     S
Er8     Er24    10.0   .     S
Er8     Er23    10.0   1_556     S
V9     V15    10.0   .     S
V9     V11    10.0   .     S
V10     V16    10.0   .     S
V10     V12    10.0   .     S
V11     V13    10.0   .     S
V12     V14    10.0   .     S
V13     V15    10.0   .     S
V14     V16    10.0   .     S
Er17     V25    10.0   .     S
Er17     V27    10.0   .     S
Er17     Er2    10.0   1_554     S
Er18     V26    10.0   .     S
Er18     V28    10.0   .     S
Er19     V27    10.0   1_565     S
Er19     V29    10.0   .     S
Er19     Er6    10.0   1_554     S
Er20     V28    10.0   1_565     S
Er20     V30    10.0   .     S
Er21     V25    10.0   1_655     S
Er21     V31    10.0   .     S
Er21     Er4    10.0   1_554     S
Er22     V26    10.0   1_655     S
Er22     V32    10.0   .     S
Er23     V29    10.0   1_655     S
Er23     V31    10.0   1_565     S
Er23     Er8    10.0   1_554     S
Er24     V30    10.0   1_655     S
Er24     V32    10.0   1_565     S
V25     Er21    10.0   1_455     S
V25     V27    10.0   .     S
V25     V31    10.0   1_455     S
V26     Er22    10.0   1_455     S
V26     V28    10.0   .     S
V26     V32    10.0   1_455     S
V27     Er19    10.0   1_545     S
V27     V29    10.0   1_545     S
V28     Er20    10.0   1_545     S
V28     V30    10.0   1_545     S
V29     Er23    10.0   1_455     S
V29     V27    10.0   1_565     S
V29     V31    10.0   1_465     S
V30     Er24    10.0   1_455     S
V30     V28    10.0   1_565     S
V30     V32    10.0   1_465     S
V31     Er23    10.0   1_545     S
V31     V25    10.0   1_655     S
V31     V29    10.0   1_645     S
V32     Er24    10.0   1_545     S
V32     V26    10.0   1_655     S
V32     V30    10.0   1_645     S
