data_bbw
_audit_creation_date              2019-12-31
_audit_creation_method            'Pymatgen'
_symmetry_space_group_name_H-M    'P1'
_symmetry_Int_Tables_number       1
loop_
_symmetry_equiv_pos_as_xyz
  x,y,z
_cell_length_a                    48.9221
_cell_length_b                    48.9221
_cell_length_c                    34.285
_cell_angle_alpha                 90.0
_cell_angle_beta                 90.0
_cell_angle_gamma                 120.0
loop_
_atom_site_label
_atom_site_type_symbol
_atom_site_fract_x
_atom_site_fract_y
_atom_site_fract_z
V1     V     0.5304   0.4696   0.375
V2     V     0.5304   0.4696   0.875
V3     V     0.4696   0.5304   0.125
V4     V     0.4696   0.5304   0.625
Er5     Er     0.7348   0.2652   0.375
Er6     Er     0.7348   0.2652   0.875
Er7     Er     0.7348   0.4696   0.375
Er8     Er     0.7348   0.4696   0.875
Er9     Er     0.5304   0.2652   0.375
Er10     Er     0.5304   0.2652   0.875
V11     V     0.0608   0.5304   0.125
V12     V     0.0608   0.5304   0.625
V13     V     0.9392   0.4696   0.375
V14     V     0.9392   0.4696   0.875
Er15     Er     0.2652   0.7348   0.125
Er16     Er     0.2652   0.7348   0.625
Er17     Er     0.4696   0.7348   0.125
Er18     Er     0.4696   0.7348   0.625
Er19     Er     0.2652   0.5304   0.125
Er20     Er     0.2652   0.5304   0.625
V21     V     0.5304   0.0608   0.375
V22     V     0.5304   0.0608   0.875
V23     V     0.4696   0.9392   0.125
V24     V     0.4696   0.9392   0.625
loop_
_geom_bond_atom_site_label_1
_geom_bond_atom_site_label_2
_geom_bond_distance
_geom_bond_site_symmetry_2
_ccdc_geom_bond_type
V1     Er9    10.0   .     S
V1     Er7    10.0   .     S
V1     V4    10.0   .     S
V1     V3    10.0   .     S
V2     Er10    10.0   .     S
V2     Er8    10.0   .     S
V2     V3    10.0   1_556     S
V2     V4    10.0   .     S
V3     Er17    10.0   .     S
V3     Er19    10.0   .     S
V3     V2    10.0   1_554     S
V4     Er18    10.0   .     S
V4     Er20    10.0   .     S
Er5     Er7    10.0   .     S
Er5     Er9    10.0   .     S
Er5     V13    10.0   .     S
Er5     V21    10.0   .     S
Er6     Er8    10.0   .     S
Er6     Er10    10.0   .     S
Er6     V14    10.0   .     S
Er6     V22    10.0   .     S
Er7     Er9    10.0   .     S
Er7     V13    10.0   .     S
Er8     Er10    10.0   .     S
Er8     V14    10.0   .     S
Er9     V21    10.0   .     S
Er10     V22    10.0   .     S
V11     Er19    10.0   .     S
V11     Er15    10.0   .     S
V11     V14    10.0   1_454     S
V11     V13    10.0   1_455     S
V12     Er20    10.0   .     S
V12     Er16    10.0   .     S
V12     V13    10.0   1_455     S
V12     V14    10.0   1_455     S
V13     V12    10.0   1_655     S
V13     V11    10.0   1_655     S
V14     V11    10.0   1_656     S
V14     V12    10.0   1_655     S
Er15     Er17    10.0   .     S
Er15     Er19    10.0   .     S
Er15     V23    10.0   .     S
Er16     Er18    10.0   .     S
Er16     Er20    10.0   .     S
Er16     V24    10.0   .     S
Er17     Er19    10.0   .     S
Er17     V23    10.0   .     S
Er18     Er20    10.0   .     S
Er18     V24    10.0   .     S
V21     V24    10.0   1_545     S
V21     V23    10.0   1_545     S
V22     V23    10.0   1_546     S
V22     V24    10.0   1_545     S
V23     V22    10.0   1_564     S
V23     V21    10.0   1_565     S
V24     V21    10.0   1_565     S
V24     V22    10.0   1_565     S
