data_bbz
_audit_creation_date              2019-12-31
_audit_creation_method            'Pymatgen'
_symmetry_space_group_name_H-M    'P1'
_symmetry_Int_Tables_number       1
loop_
_symmetry_equiv_pos_as_xyz
  x,y,z
_cell_length_a                    68.6518
_cell_length_b                    68.6518
_cell_length_c                    31.5168
_cell_angle_alpha                 90.0
_cell_angle_beta                 90.0
_cell_angle_gamma                 120.0
loop_
_atom_site_label
_atom_site_type_symbol
_atom_site_fract_x
_atom_site_fract_y
_atom_site_fract_z
V1     V     0.5308   0.9159   0.0
V2     V     0.5308   0.9159   0.5
V3     V     0.3851   0.9159   0.0
V4     V     0.3851   0.9159   0.5
V5     V     0.4692   0.0841   0.0
V6     V     0.4692   0.0841   0.5
V7     V     0.6149   0.0841   0.0
V8     V     0.6149   0.0841   0.5
V9     V     0.9159   0.3851   0.0
V10     V     0.9159   0.3851   0.5
V11     V     0.9159   0.5308   0.0
V12     V     0.9159   0.5308   0.5
V13     V     0.0841   0.6149   0.0
V14     V     0.0841   0.6149   0.5
V15     V     0.0841   0.4692   0.0
V16     V     0.0841   0.4692   0.5
Er17     Er     0.479   0.6667   0.25
Er18     Er     0.479   0.6667   0.75
Er19     Er     0.1877   0.521   0.25
Er20     Er     0.1877   0.521   0.75
Er21     Er     0.3333   0.521   0.25
Er22     Er     0.3333   0.521   0.75
Er23     Er     0.1877   0.6667   0.25
Er24     Er     0.1877   0.6667   0.75
Er25     Er     0.479   0.8123   0.25
Er26     Er     0.479   0.8123   0.75
Er27     Er     0.3333   0.8123   0.25
Er28     Er     0.3333   0.8123   0.75
Er29     Er     0.6667   0.1877   0.25
Er30     Er     0.6667   0.1877   0.75
Er31     Er     0.521   0.1877   0.25
Er32     Er     0.521   0.1877   0.75
Er33     Er     0.6667   0.479   0.25
Er34     Er     0.6667   0.479   0.75
Er35     Er     0.521   0.3333   0.25
Er36     Er     0.521   0.3333   0.75
Er37     Er     0.8123   0.479   0.25
Er38     Er     0.8123   0.479   0.75
Er39     Er     0.8123   0.3333   0.25
Er40     Er     0.8123   0.3333   0.75
V41     V     0.3851   0.4692   0.0
V42     V     0.3851   0.4692   0.5
V43     V     0.5308   0.6149   0.0
V44     V     0.5308   0.6149   0.5
V45     V     0.6149   0.5308   0.0
V46     V     0.6149   0.5308   0.5
V47     V     0.4692   0.3851   0.0
V48     V     0.4692   0.3851   0.5
loop_
_geom_bond_atom_site_label_1
_geom_bond_atom_site_label_2
_geom_bond_distance
_geom_bond_site_symmetry_2
_ccdc_geom_bond_type
V1     V3    10.0   .     S
V1     V7    10.0   1_565     S
V1     Er25    10.0   .     S
V1     Er26    10.0   1_554     S
V2     V4    10.0   .     S
V2     V8    10.0   1_565     S
V2     Er26    10.0   .     S
V2     Er25    10.0   .     S
V3     V5    10.0   1_565     S
V3     Er27    10.0   .     S
V3     Er28    10.0   1_554     S
V4     V6    10.0   1_565     S
V4     Er28    10.0   .     S
V4     Er27    10.0   .     S
V5     V7    10.0   .     S
V5     V3    10.0   1_545     S
V5     Er32    10.0   1_554     S
V5     Er31    10.0   .     S
V6     V8    10.0   .     S
V6     V4    10.0   1_545     S
V6     Er31    10.0   .     S
V6     Er32    10.0   .     S
V7     V1    10.0   1_545     S
V7     Er29    10.0   .     S
V7     Er30    10.0   1_554     S
V8     V2    10.0   1_545     S
V8     Er30    10.0   .     S
V8     Er29    10.0   .     S
V9     V11    10.0   .     S
V9     V15    10.0   1_655     S
V9     Er39    10.0   .     S
V9     Er40    10.0   1_554     S
V10     V12    10.0   .     S
V10     V16    10.0   1_655     S
V10     Er40    10.0   .     S
V10     Er39    10.0   .     S
V11     V13    10.0   1_655     S
V11     Er37    10.0   .     S
V11     Er38    10.0   1_554     S
V12     V14    10.0   1_655     S
V12     Er38    10.0   .     S
V12     Er37    10.0   .     S
V13     V15    10.0   .     S
V13     V11    10.0   1_455     S
V13     Er24    10.0   1_554     S
V13     Er23    10.0   .     S
V14     V16    10.0   .     S
V14     V12    10.0   1_455     S
V14     Er23    10.0   .     S
V14     Er24    10.0   .     S
V15     V9    10.0   1_455     S
V15     Er19    10.0   .     S
V15     Er20    10.0   1_554     S
V16     V10    10.0   1_455     S
V16     Er20    10.0   .     S
V16     Er19    10.0   .     S
Er17     Er21    10.001   .     S
Er17     V43    10.0   .     S
Er17     V44    10.0   .     S
Er17     Er25    10.0   .     S
Er18     Er22    10.001   .     S
Er18     V44    10.0   .     S
Er18     V43    10.0   1_556     S
Er18     Er26    10.0   .     S
Er19     Er21    10.0   .     S
Er19     Er23    10.001   .     S
Er20     V15    10.0   1_556     S
Er20     Er22    10.0   .     S
Er20     Er24    10.001   .     S
Er21     V42    10.0   .     S
Er21     V41    10.0   .     S
Er22     V41    10.0   1_556     S
Er22     V42    10.0   .     S
Er23     Er27    10.0   .     S
Er24     V13    10.0   1_556     S
Er24     Er28    10.0   .     S
Er25     Er27    10.001   .     S
Er26     V1    10.0   1_556     S
Er26     Er28    10.001   .     S
Er28     V3    10.0   1_556     S
Er29     Er31    10.001   .     S
Er29     Er39    10.0   .     S
Er30     V7    10.0   1_556     S
Er30     Er32    10.001   .     S
Er30     Er40    10.0   .     S
Er31     Er35    10.0   .     S
Er32     V5    10.0   1_556     S
Er32     Er36    10.0   .     S
Er33     V45    10.0   .     S
Er33     V46    10.0   .     S
Er33     Er35    10.001   .     S
Er33     Er37    10.0   .     S
Er34     V46    10.0   .     S
Er34     V45    10.0   1_556     S
Er34     Er36    10.001   .     S
Er34     Er38    10.0   .     S
Er35     V48    10.0   .     S
Er35     V47    10.0   .     S
Er36     V47    10.0   1_556     S
Er36     V48    10.0   .     S
Er37     Er39    10.001   .     S
Er38     V11    10.0   1_556     S
Er38     Er40    10.001   .     S
Er40     V9    10.0   1_556     S
V41     Er22    10.0   1_554     S
V41     V43    10.0   .     S
V41     V47    10.0   .     S
V42     V44    10.0   .     S
V42     V48    10.0   .     S
V43     Er18    10.0   1_554     S
V43     V45    10.0   .     S
V44     V46    10.0   .     S
V45     Er34    10.0   1_554     S
V45     V47    10.0   .     S
V46     V48    10.0   .     S
V47     Er36    10.0   1_554     S
