data_bcb
_audit_creation_date              2019-12-31
_audit_creation_method            'Pymatgen'
_symmetry_space_group_name_H-M    'P1'
_symmetry_Int_Tables_number       1
loop_
_symmetry_equiv_pos_as_xyz
  x,y,z
_cell_length_a                    45.7699
_cell_length_b                    45.7699
_cell_length_c                    32.5448
_cell_angle_alpha                 90.0
_cell_angle_beta                 90.0
_cell_angle_gamma                 90.0
loop_
_atom_site_label
_atom_site_type_symbol
_atom_site_fract_x
_atom_site_fract_y
_atom_site_fract_z
V1     V     0.6092   0.8908   0.0
V2     V     0.6092   0.8908   0.5
V3     V     0.3908   0.8908   0.0
V4     V     0.3908   0.8908   0.5
V5     V     0.3908   0.1092   0.0
V6     V     0.3908   0.1092   0.5
V7     V     0.6092   0.1092   0.0
V8     V     0.6092   0.1092   0.5
V9     V     0.8908   0.6092   0.0
V10     V     0.8908   0.6092   0.5
V11     V     0.8908   0.3908   0.0
V12     V     0.8908   0.3908   0.5
V13     V     0.1092   0.3908   0.0
V14     V     0.1092   0.3908   0.5
V15     V     0.1092   0.6092   0.0
V16     V     0.1092   0.6092   0.5
Er17     Er     0.6092   0.7637   0.25
Er18     Er     0.6092   0.7637   0.75
Er19     Er     0.3908   0.7637   0.25
Er20     Er     0.3908   0.7637   0.75
Er21     Er     0.7637   0.3908   0.25
Er22     Er     0.7637   0.3908   0.75
Er23     Er     0.7637   0.6092   0.25
Er24     Er     0.7637   0.6092   0.75
Er25     Er     0.3908   0.2363   0.25
Er26     Er     0.3908   0.2363   0.75
Er27     Er     0.6092   0.2363   0.25
Er28     Er     0.6092   0.2363   0.75
Er29     Er     0.2363   0.3908   0.25
Er30     Er     0.2363   0.3908   0.75
Er31     Er     0.2363   0.6092   0.25
Er32     Er     0.2363   0.6092   0.75
loop_
_geom_bond_atom_site_label_1
_geom_bond_atom_site_label_2
_geom_bond_distance
_geom_bond_site_symmetry_2
_ccdc_geom_bond_type
V1     V7    10.0   1_565     S
V1     V3    10.0   .     S
V1     Er18    10.0   1_554     S
V1     Er17    10.0   .     S
V2     V8    10.0   1_565     S
V2     V4    10.0   .     S
V2     Er17    10.0   .     S
V2     Er18    10.0   .     S
V3     V5    10.0   1_565     S
V3     Er19    10.0   .     S
V3     Er20    10.0   1_554     S
V4     V6    10.0   1_565     S
V4     Er20    10.0   .     S
V4     Er19    10.0   .     S
V5     V3    10.0   1_545     S
V5     V7    10.0   .     S
V5     Er25    10.0   .     S
V5     Er26    10.0   1_554     S
V6     V4    10.0   1_545     S
V6     V8    10.0   .     S
V6     Er26    10.0   .     S
V6     Er25    10.0   .     S
V7     V1    10.0   1_545     S
V7     Er27    10.0   .     S
V7     Er28    10.0   1_554     S
V8     V2    10.0   1_545     S
V8     Er28    10.0   .     S
V8     Er27    10.0   .     S
V9     V15    10.0   1_655     S
V9     V11    10.0   .     S
V9     Er23    10.0   .     S
V9     Er24    10.0   1_554     S
V10     V16    10.0   1_655     S
V10     V12    10.0   .     S
V10     Er24    10.0   .     S
V10     Er23    10.0   .     S
V11     V13    10.0   1_655     S
V11     Er22    10.0   1_554     S
V11     Er21    10.0   .     S
V12     V14    10.0   1_655     S
V12     Er21    10.0   .     S
V12     Er22    10.0   .     S
V13     V11    10.0   1_455     S
V13     V15    10.0   .     S
V13     Er29    10.0   .     S
V13     Er30    10.0   1_554     S
V14     V12    10.0   1_455     S
V14     V16    10.0   .     S
V14     Er30    10.0   .     S
V14     Er29    10.0   .     S
V15     V9    10.0   1_455     S
V15     Er31    10.0   .     S
V15     Er32    10.0   1_554     S
V16     V10    10.0   1_455     S
V16     Er32    10.0   .     S
V16     Er31    10.0   .     S
Er17     Er19    10.0   .     S
Er17     Er23    10.0   .     S
Er18     V1    10.0   1_556     S
Er18     Er20    10.0   .     S
Er18     Er24    10.0   .     S
Er19     Er31    10.0   .     S
Er20     V3    10.0   1_556     S
Er20     Er32    10.0   .     S
Er21     Er23    10.0   .     S
Er21     Er27    10.0   .     S
Er22     V11    10.0   1_556     S
Er22     Er24    10.0   .     S
Er22     Er28    10.0   .     S
Er24     V9    10.0   1_556     S
Er25     Er27    10.0   .     S
Er25     Er29    10.0   .     S
Er26     V5    10.0   1_556     S
Er26     Er28    10.0   .     S
Er26     Er30    10.0   .     S
Er28     V7    10.0   1_556     S
Er29     Er31    10.0   .     S
Er30     V13    10.0   1_556     S
Er30     Er32    10.0   .     S
Er32     V15    10.0   1_556     S
