data_bcl
_audit_creation_date              2019-12-31
_audit_creation_method            'Pymatgen'
_symmetry_space_group_name_H-M    'P1'
_symmetry_Int_Tables_number       1
loop_
_symmetry_equiv_pos_as_xyz
  x,y,z
_cell_length_a                    30.0
_cell_length_b                    30.0
_cell_length_c                    34.1421
_cell_angle_alpha                 90.0
_cell_angle_beta                 90.0
_cell_angle_gamma                 90.0
loop_
_atom_site_label
_atom_site_type_symbol
_atom_site_fract_x
_atom_site_fract_y
_atom_site_fract_z
V1     V     0.1667   0.1667   0.7071
V2     V     0.1667   0.5   0.7071
V3     V     0.1667   0.8333   0.7071
V4     V     0.5   0.1667   0.7071
V5     V     0.5   0.5   0.7071
V6     V     0.5   0.8333   0.7071
V7     V     0.8333   0.1667   0.7071
V8     V     0.8333   0.5   0.7071
V9     V     0.8333   0.8333   0.7071
Er10     Er     0.1667   0.1667   0.0
Er11     Er     0.1667   0.5   0.0
Er12     Er     0.1667   0.8333   0.0
Er13     Er     0.5   0.1667   0.0
Er14     Er     0.5   0.5   0.0
Er15     Er     0.5   0.8333   0.0
Er16     Er     0.8333   0.1667   0.0
Er17     Er     0.8333   0.5   0.0
Er18     Er     0.8333   0.8333   0.0
V19     V     0.0   0.0   0.2071
V20     V     0.0   0.3333   0.2071
V21     V     0.0   0.6667   0.2071
V22     V     0.3333   0.0   0.2071
V23     V     0.3333   0.3333   0.2071
V24     V     0.3333   0.6667   0.2071
V25     V     0.6667   0.0   0.2071
V26     V     0.6667   0.3333   0.2071
V27     V     0.6667   0.6667   0.2071
Er28     Er     0.0   0.0   0.5
Er29     Er     0.0   0.3333   0.5
Er30     Er     0.0   0.6667   0.5
Er31     Er     0.3333   0.0   0.5
Er32     Er     0.3333   0.3333   0.5
Er33     Er     0.3333   0.6667   0.5
Er34     Er     0.6667   0.0   0.5
Er35     Er     0.6667   0.3333   0.5
Er36     Er     0.6667   0.6667   0.5
loop_
_geom_bond_atom_site_label_1
_geom_bond_atom_site_label_2
_geom_bond_distance
_geom_bond_site_symmetry_2
_ccdc_geom_bond_type
V1     Er10    10.0   1_556     S
V1     Er29    10.0   .     S
V1     Er31    10.0   .     S
V2     Er11    10.0   1_556     S
V2     Er30    10.0   .     S
V2     Er32    10.0   .     S
V3     Er12    10.0   1_556     S
V3     Er28    10.0   1_565     S
V3     Er33    10.0   .     S
V4     Er13    10.0   1_556     S
V4     Er32    10.0   .     S
V4     Er34    10.0   .     S
V5     Er14    10.0   1_556     S
V5     Er33    10.0   .     S
V5     Er35    10.0   .     S
V6     Er15    10.0   1_556     S
V6     Er31    10.0   1_565     S
V6     Er36    10.0   .     S
V7     Er16    10.0   1_556     S
V7     Er35    10.0   .     S
V7     Er28    10.0   1_655     S
V8     Er17    10.0   1_556     S
V8     Er36    10.0   .     S
V8     Er29    10.0   1_655     S
V9     Er18    10.0   1_556     S
V9     Er34    10.0   1_565     S
V9     Er30    10.0   1_655     S
Er10     V1    10.0   1_554     S
Er10     V19    10.0   .     S
Er10     V23    10.0   .     S
Er10     Er16    10.0   1_455     S
Er10     Er13    10.0   .     S
Er10     Er12    10.0   1_545     S
Er10     Er11    10.0   .     S
Er11     V2    10.0   1_554     S
Er11     V20    10.0   .     S
Er11     V24    10.0   .     S
Er11     Er17    10.0   1_455     S
Er11     Er14    10.0   .     S
Er11     Er12    10.0   .     S
Er12     V3    10.0   1_554     S
Er12     V21    10.0   .     S
Er12     V22    10.0   1_565     S
Er12     Er18    10.0   1_455     S
Er12     Er15    10.0   .     S
Er12     Er10    10.0   1_565     S
Er13     V4    10.0   1_554     S
Er13     V22    10.0   .     S
Er13     V26    10.0   .     S
Er13     Er16    10.0   .     S
Er13     Er15    10.0   1_545     S
Er13     Er14    10.0   .     S
Er14     V5    10.0   1_554     S
Er14     V23    10.0   .     S
Er14     V27    10.0   .     S
Er14     Er17    10.0   .     S
Er14     Er15    10.0   .     S
Er15     V6    10.0   1_554     S
Er15     V24    10.0   .     S
Er15     V25    10.0   1_565     S
Er15     Er18    10.0   .     S
Er15     Er13    10.0   1_565     S
Er16     V7    10.0   1_554     S
Er16     V25    10.0   .     S
Er16     V20    10.0   1_655     S
Er16     Er10    10.0   1_655     S
Er16     Er18    10.0   1_545     S
Er16     Er17    10.0   .     S
Er17     V8    10.0   1_554     S
Er17     V26    10.0   .     S
Er17     V21    10.0   1_655     S
Er17     Er11    10.0   1_655     S
Er17     Er18    10.0   .     S
Er18     V9    10.0   1_554     S
Er18     V27    10.0   .     S
Er18     V19    10.0   1_665     S
Er18     Er12    10.0   1_655     S
Er18     Er16    10.0   1_565     S
V19     Er18    10.0   1_445     S
V19     Er28    10.0   .     S
V20     Er16    10.0   1_455     S
V20     Er29    10.0   .     S
V21     Er17    10.0   1_455     S
V21     Er30    10.0   .     S
V22     Er12    10.0   1_545     S
V22     Er31    10.0   .     S
V23     Er32    10.0   .     S
V24     Er33    10.0   .     S
V25     Er15    10.0   1_545     S
V25     Er34    10.0   .     S
V26     Er35    10.0   .     S
V27     Er36    10.0   .     S
Er28     V3    10.0   1_545     S
Er28     V7    10.0   1_455     S
Er28     Er29    10.0   .     S
Er28     Er30    10.0   1_545     S
Er28     Er31    10.0   .     S
Er28     Er34    10.0   1_455     S
Er29     V8    10.0   1_455     S
Er29     Er30    10.0   .     S
Er29     Er32    10.0   .     S
Er29     Er35    10.0   1_455     S
Er30     V9    10.0   1_455     S
Er30     Er28    10.0   1_565     S
Er30     Er33    10.0   .     S
Er30     Er36    10.0   1_455     S
Er31     V6    10.0   1_545     S
Er31     Er32    10.0   .     S
Er31     Er33    10.0   1_545     S
Er31     Er34    10.0   .     S
Er32     Er33    10.0   .     S
Er32     Er35    10.0   .     S
Er33     Er31    10.0   1_565     S
Er33     Er36    10.0   .     S
Er34     V9    10.0   1_545     S
Er34     Er35    10.0   .     S
Er34     Er36    10.0   1_545     S
Er34     Er28    10.0   1_655     S
Er35     Er36    10.0   .     S
Er35     Er29    10.0   1_655     S
Er36     Er34    10.0   1_565     S
Er36     Er30    10.0   1_655     S
