data_bcn
_audit_creation_date              2019-12-31
_audit_creation_method            'Pymatgen'
_symmetry_space_group_name_H-M    'P1'
_symmetry_Int_Tables_number       1
loop_
_symmetry_equiv_pos_as_xyz
  x,y,z
_cell_length_a                    34.496
_cell_length_b                    39.4978
_cell_length_c                    27.8053
_cell_angle_alpha                 90.0
_cell_angle_beta                 90.0
_cell_angle_gamma                 90.0
loop_
_atom_site_label
_atom_site_type_symbol
_atom_site_fract_x
_atom_site_fract_y
_atom_site_fract_z
Er1     Er     0.375   0.4359   0.6885
Er2     Er     0.375   0.9359   0.6885
Er3     Er     0.875   0.4359   0.6885
Er4     Er     0.875   0.9359   0.6885
Er5     Er     0.125   0.0641   0.6885
Er6     Er     0.125   0.5641   0.6885
Er7     Er     0.625   0.0641   0.6885
Er8     Er     0.625   0.5641   0.6885
V9     V     0.0   0.0   0.0
V10     V     0.0   0.5   0.0
V11     V     0.5   0.0   0.0
V12     V     0.5   0.5   0.0
Er13     Er     0.375   0.1859   0.1885
Er14     Er     0.375   0.6859   0.1885
Er15     Er     0.875   0.1859   0.1885
Er16     Er     0.875   0.6859   0.1885
Er17     Er     0.125   0.3141   0.1885
Er18     Er     0.125   0.8141   0.1885
Er19     Er     0.625   0.3141   0.1885
Er20     Er     0.625   0.8141   0.1885
V21     V     0.25   0.25   0.5
V22     V     0.25   0.75   0.5
V23     V     0.75   0.25   0.5
V24     V     0.75   0.75   0.5
loop_
_geom_bond_atom_site_label_1
_geom_bond_atom_site_label_2
_geom_bond_distance
_geom_bond_site_symmetry_2
_ccdc_geom_bond_type
Er1     V21    10.0   .     S
Er1     V12    10.0   1_556     S
Er1     Er8    10.0   .     S
Er1     Er6    10.0   .     S
Er2     V22    10.0   .     S
Er2     V11    10.0   1_566     S
Er2     Er7    10.0   1_565     S
Er2     Er5    10.0   1_565     S
Er3     V23    10.0   .     S
Er3     V10    10.0   1_656     S
Er3     Er6    10.0   1_655     S
Er3     Er8    10.0   .     S
Er4     V24    10.0   .     S
Er4     V9    10.0   1_666     S
Er4     Er5    10.0   1_665     S
Er4     Er7    10.0   1_565     S
Er5     V21    10.0   .     S
Er5     V9    10.0   1_556     S
Er5     Er4    10.0   1_445     S
Er5     Er2    10.0   1_545     S
Er6     V22    10.0   .     S
Er6     V10    10.0   1_556     S
Er6     Er3    10.0   1_455     S
Er7     V23    10.0   .     S
Er7     V11    10.0   1_556     S
Er7     Er2    10.0   1_545     S
Er7     Er4    10.0   1_545     S
Er8     V24    10.0   .     S
Er8     V12    10.0   1_556     S
V9     Er5    10.0   1_554     S
V9     Er4    10.0   1_444     S
V9     Er15    10.0   1_455     S
V9     Er18    10.0   1_545     S
V10     Er6    10.0   1_554     S
V10     Er3    10.0   1_454     S
V10     Er16    10.0   1_455     S
V10     Er17    10.0   .     S
V11     Er7    10.0   1_554     S
V11     Er2    10.0   1_544     S
V11     Er13    10.0   .     S
V11     Er20    10.0   1_545     S
V12     Er8    10.0   1_554     S
V12     Er1    10.0   1_554     S
V12     Er14    10.0   .     S
V12     Er19    10.0   .     S
Er13     V21    10.0   .     S
Er13     Er17    10.0   .     S
Er13     Er19    10.0   .     S
Er14     V22    10.0   .     S
Er14     Er18    10.0   .     S
Er14     Er20    10.0   .     S
Er15     V9    10.0   1_655     S
Er15     V23    10.0   .     S
Er15     Er19    10.0   .     S
Er15     Er17    10.0   1_655     S
Er16     V10    10.0   1_655     S
Er16     V24    10.0   .     S
Er16     Er20    10.0   .     S
Er16     Er18    10.0   1_655     S
Er17     V21    10.0   .     S
Er17     Er15    10.0   1_455     S
Er18     V9    10.0   1_565     S
Er18     V22    10.0   .     S
Er18     Er16    10.0   1_455     S
Er19     V23    10.0   .     S
Er20     V11    10.0   1_565     S
Er20     V24    10.0   .     S
