data_bco
_audit_creation_date              2019-12-31
_audit_creation_method            'Pymatgen'
_symmetry_space_group_name_H-M    'P1'
_symmetry_Int_Tables_number       1
loop_
_symmetry_equiv_pos_as_xyz
  x,y,z
_cell_length_a                    27.3672
_cell_length_b                    20.9472
_cell_length_c                    31.198
_cell_angle_alpha                 90.0
_cell_angle_beta                 90.0
_cell_angle_gamma                 90.0
loop_
_atom_site_label
_atom_site_type_symbol
_atom_site_fract_x
_atom_site_fract_y
_atom_site_fract_z
Er1     Er     0.1827   0.3506   0.125
Er2     Er     0.1827   0.3506   0.625
Er3     Er     0.8173   0.3506   0.125
Er4     Er     0.8173   0.3506   0.625
V5     V     0.6143   0.0   0.0
V6     V     0.6143   0.0   0.5
V7     V     0.3857   0.0   0.25
V8     V     0.3857   0.0   0.75
Er9     Er     0.1827   0.6494   0.375
Er10     Er     0.1827   0.6494   0.875
Er11     Er     0.8173   0.6494   0.375
Er12     Er     0.8173   0.6494   0.875
loop_
_geom_bond_atom_site_label_1
_geom_bond_atom_site_label_2
_geom_bond_distance
_geom_bond_site_symmetry_2
_ccdc_geom_bond_type
Er1     V7    10.0   .     S
Er1     Er3    10.0   1_455     S
Er1     Er9    10.0   .     S
Er1     Er10    10.0   1_554     S
Er2     V8    10.0   .     S
Er2     Er4    10.0   1_455     S
Er2     Er10    10.0   .     S
Er2     Er9    10.0   .     S
Er3     V5    10.0   .     S
Er3     Er1    10.0   1_655     S
Er3     Er11    10.0   .     S
Er3     Er12    10.0   1_554     S
Er4     V6    10.0   .     S
Er4     Er2    10.0   1_655     S
Er4     Er12    10.0   .     S
Er4     Er11    10.0   .     S
V5     V7    10.0   .     S
V5     V8    10.0   1_554     S
V5     Er12    10.0   1_544     S
V6     V8    10.0   .     S
V6     V7    10.0   .     S
V6     Er11    10.0   1_545     S
V7     Er9    10.0   1_545     S
V8     V5    10.0   1_556     S
V8     Er10    10.0   1_545     S
Er9     V7    10.0   1_565     S
Er9     Er11    10.0   1_455     S
Er10     V8    10.0   1_565     S
Er10     Er12    10.0   1_455     S
Er10     Er1    10.0   1_556     S
Er11     V6    10.0   1_565     S
Er11     Er9    10.0   1_655     S
Er12     V5    10.0   1_566     S
Er12     Er10    10.0   1_655     S
Er12     Er3    10.0   1_556     S
