data_bcq
_audit_creation_date              2019-12-31
_audit_creation_method            'Pymatgen'
_symmetry_space_group_name_H-M    'P1'
_symmetry_Int_Tables_number       1
loop_
_symmetry_equiv_pos_as_xyz
  x,y,z
_cell_length_a                    42.9713
_cell_length_b                    33.0688
_cell_length_c                    55.6227
_cell_angle_alpha                 90.0
_cell_angle_beta                 90.0
_cell_angle_gamma                 90.0
loop_
_atom_site_label
_atom_site_type_symbol
_atom_site_fract_x
_atom_site_fract_y
_atom_site_fract_z
V1     V     0.0   0.0   0.6994
V2     V     0.0   0.5   0.6994
V3     V     0.0   0.25   0.8006
V4     V     0.0   0.75   0.8006
V5     V     0.0   0.25   0.1994
V6     V     0.0   0.75   0.1994
V7     V     0.0   0.0   0.3006
V8     V     0.0   0.5   0.3006
V9     V     0.5   0.25   0.3006
V10     V     0.5   0.75   0.3006
V11     V     0.5   0.0   0.1994
V12     V     0.5   0.5   0.1994
Er13     Er     0.8155   0.0   0.4101
Er14     Er     0.8155   0.5   0.4101
Er15     Er     0.6845   0.25   0.4101
Er16     Er     0.6845   0.75   0.4101
Er17     Er     0.8155   0.0   0.5899
Er18     Er     0.8155   0.5   0.5899
Er19     Er     0.6845   0.25   0.5899
Er20     Er     0.6845   0.75   0.5899
Er21     Er     0.8155   0.25   0.9101
Er22     Er     0.8155   0.75   0.9101
Er23     Er     0.6845   0.0   0.9101
Er24     Er     0.6845   0.5   0.9101
Er25     Er     0.8155   0.25   0.0899
Er26     Er     0.8155   0.75   0.0899
Er27     Er     0.6845   0.0   0.0899
Er28     Er     0.6845   0.5   0.0899
Er29     Er     0.3155   0.0   0.9101
Er30     Er     0.3155   0.5   0.9101
Er31     Er     0.1845   0.25   0.9101
Er32     Er     0.1845   0.75   0.9101
Er33     Er     0.3155   0.0   0.0899
Er34     Er     0.3155   0.5   0.0899
Er35     Er     0.1845   0.25   0.0899
Er36     Er     0.1845   0.75   0.0899
Er37     Er     0.3155   0.25   0.5899
Er38     Er     0.3155   0.75   0.5899
Er39     Er     0.1845   0.0   0.5899
Er40     Er     0.1845   0.5   0.5899
Er41     Er     0.1845   0.0   0.4101
Er42     Er     0.1845   0.5   0.4101
Er43     Er     0.3155   0.25   0.4101
Er44     Er     0.3155   0.75   0.4101
V45     V     0.5   0.25   0.6994
V46     V     0.5   0.75   0.6994
V47     V     0.5   0.0   0.8006
V48     V     0.5   0.5   0.8006
loop_
_geom_bond_atom_site_label_1
_geom_bond_atom_site_label_2
_geom_bond_distance
_geom_bond_site_symmetry_2
_ccdc_geom_bond_type
V1     V3    10.0   .     S
V1     V4    10.0   1_545     S
V1     Er17    10.0   1_455     S
V1     Er39    10.0   .     S
V2     V4    10.0   .     S
V2     V3    10.0   .     S
V2     Er18    10.0   1_455     S
V2     Er40    10.0   .     S
V3     Er21    10.0   1_455     S
V3     Er31    10.0   .     S
V4     V1    10.0   1_565     S
V4     Er22    10.0   1_455     S
V4     Er32    10.0   .     S
V5     V8    10.0   .     S
V5     V7    10.0   .     S
V5     Er25    10.0   1_455     S
V5     Er35    10.0   .     S
V6     V7    10.0   1_565     S
V6     V8    10.0   .     S
V6     Er26    10.0   1_455     S
V6     Er36    10.0   .     S
V7     V6    10.0   1_545     S
V7     Er13    10.0   1_455     S
V7     Er41    10.0   .     S
V8     Er14    10.0   1_455     S
V8     Er42    10.0   .     S
V9     V12    10.0   .     S
V9     V11    10.0   .     S
V9     Er15    10.0   .     S
V9     Er43    10.0   .     S
V10     V11    10.0   1_565     S
V10     V12    10.0   .     S
V10     Er16    10.0   .     S
V10     Er44    10.0   .     S
V11     V10    10.0   1_545     S
V11     Er27    10.0   .     S
V11     Er33    10.0   .     S
V12     Er28    10.0   .     S
V12     Er34    10.0   .     S
Er13     V7    10.0   1_655     S
Er13     Er15    10.0   .     S
Er13     Er16    10.0   1_545     S
Er13     Er17    10.0   .     S
Er14     V8    10.0   1_655     S
Er14     Er16    10.0   .     S
Er14     Er15    10.0   .     S
Er14     Er18    10.0   .     S
Er15     Er19    10.0   .     S
Er16     Er13    10.0   1_565     S
Er16     Er20    10.0   .     S
Er17     V1    10.0   1_655     S
Er17     Er19    10.0   .     S
Er17     Er20    10.0   1_545     S
Er18     V2    10.0   1_655     S
Er18     Er20    10.0   .     S
Er18     Er19    10.0   .     S
Er19     V45    10.0   .     S
Er20     Er17    10.0   1_565     S
Er20     V46    10.0   .     S
Er21     V3    10.0   1_655     S
Er21     Er24    10.0   .     S
Er21     Er23    10.0   .     S
Er21     Er25    10.0   1_556     S
Er22     V4    10.0   1_655     S
Er22     Er23    10.0   1_565     S
Er22     Er24    10.0   .     S
Er22     Er26    10.0   1_556     S
Er23     Er22    10.0   1_545     S
Er23     Er27    10.0   1_556     S
Er23     V47    10.0   .     S
Er24     Er28    10.0   1_556     S
Er24     V48    10.0   .     S
Er25     V5    10.0   1_655     S
Er25     Er28    10.0   .     S
Er25     Er27    10.0   .     S
Er25     Er21    10.0   1_554     S
Er26     V6    10.0   1_655     S
Er26     Er27    10.0   1_565     S
Er26     Er28    10.0   .     S
Er26     Er22    10.0   1_554     S
Er27     Er26    10.0   1_545     S
Er27     Er23    10.0   1_554     S
Er28     Er24    10.0   1_554     S
Er29     Er31    10.0   .     S
Er29     Er32    10.0   1_545     S
Er29     Er33    10.0   1_556     S
Er29     V47    10.0   .     S
Er30     Er32    10.0   .     S
Er30     Er31    10.0   .     S
Er30     Er34    10.0   1_556     S
Er30     V48    10.0   .     S
Er31     Er35    10.0   1_556     S
Er32     Er29    10.0   1_565     S
Er32     Er36    10.0   1_556     S
Er33     Er35    10.0   .     S
Er33     Er36    10.0   1_545     S
Er33     Er29    10.0   1_554     S
Er34     Er36    10.0   .     S
Er34     Er35    10.0   .     S
Er34     Er30    10.0   1_554     S
Er35     Er31    10.0   1_554     S
Er36     Er33    10.0   1_565     S
Er36     Er32    10.0   1_554     S
Er37     Er40    10.0   .     S
Er37     Er39    10.0   .     S
Er37     Er43    10.0   .     S
Er37     V45    10.0   .     S
Er38     Er39    10.0   1_565     S
Er38     Er40    10.0   .     S
Er38     Er44    10.0   .     S
Er38     V46    10.0   .     S
Er39     Er38    10.0   1_545     S
Er39     Er41    10.0   .     S
Er40     Er42    10.0   .     S
Er41     Er43    10.0   .     S
Er41     Er44    10.0   1_545     S
Er42     Er44    10.0   .     S
Er42     Er43    10.0   .     S
Er44     Er41    10.0   1_565     S
V45     V48    10.0   .     S
V45     V47    10.0   .     S
V46     V47    10.0   1_565     S
V46     V48    10.0   .     S
V47     V46    10.0   1_545     S
