data_bet
_audit_creation_date              2019-12-31
_audit_creation_method            'Pymatgen'
_symmetry_space_group_name_H-M    'P1'
_symmetry_Int_Tables_number       1
loop_
_symmetry_equiv_pos_as_xyz
  x,y,z
_cell_length_a                    34.7118
_cell_length_b                    34.7118
_cell_length_c                    34.7118
_cell_angle_alpha                 90.0
_cell_angle_beta                 90.0
_cell_angle_gamma                 90.0
loop_
_atom_site_label
_atom_site_type_symbol
_atom_site_fract_x
_atom_site_fract_y
_atom_site_fract_z
Er1     Er     0.25   0.0   0.125
Er2     Er     0.25   0.0   0.625
Er3     Er     0.25   0.5   0.125
Er4     Er     0.25   0.5   0.625
Er5     Er     0.75   0.0   0.125
Er6     Er     0.75   0.0   0.625
Er7     Er     0.75   0.5   0.125
Er8     Er     0.75   0.5   0.625
Er9     Er     0.25   0.0   0.375
Er10     Er     0.25   0.0   0.875
Er11     Er     0.25   0.5   0.375
Er12     Er     0.25   0.5   0.875
Er13     Er     0.75   0.0   0.375
Er14     Er     0.75   0.0   0.875
Er15     Er     0.75   0.5   0.375
Er16     Er     0.75   0.5   0.875
Er17     Er     0.125   0.25   0.0
Er18     Er     0.125   0.25   0.5
Er19     Er     0.125   0.75   0.0
Er20     Er     0.125   0.75   0.5
Er21     Er     0.625   0.25   0.0
Er22     Er     0.625   0.25   0.5
Er23     Er     0.625   0.75   0.0
Er24     Er     0.625   0.75   0.5
Er25     Er     0.375   0.25   0.0
Er26     Er     0.375   0.25   0.5
Er27     Er     0.375   0.75   0.0
Er28     Er     0.375   0.75   0.5
Er29     Er     0.875   0.25   0.0
Er30     Er     0.875   0.25   0.5
Er31     Er     0.875   0.75   0.0
Er32     Er     0.875   0.75   0.5
Er33     Er     0.0   0.125   0.25
Er34     Er     0.0   0.125   0.75
Er35     Er     0.0   0.625   0.25
Er36     Er     0.0   0.625   0.75
Er37     Er     0.5   0.125   0.25
Er38     Er     0.5   0.125   0.75
Er39     Er     0.5   0.625   0.25
Er40     Er     0.5   0.625   0.75
Er41     Er     0.0   0.375   0.25
Er42     Er     0.0   0.375   0.75
Er43     Er     0.0   0.875   0.25
Er44     Er     0.0   0.875   0.75
Er45     Er     0.5   0.375   0.25
Er46     Er     0.5   0.375   0.75
Er47     Er     0.5   0.875   0.25
Er48     Er     0.5   0.875   0.75
V49     V     0.0   0.0   0.0
V50     V     0.0   0.0   0.5
V51     V     0.0   0.5   0.0
V52     V     0.0   0.5   0.5
V53     V     0.5   0.0   0.0
V54     V     0.5   0.0   0.5
V55     V     0.5   0.5   0.0
V56     V     0.5   0.5   0.5
V57     V     0.25   0.25   0.25
V58     V     0.25   0.25   0.75
V59     V     0.25   0.75   0.25
V60     V     0.25   0.75   0.75
V61     V     0.75   0.25   0.25
V62     V     0.75   0.25   0.75
V63     V     0.75   0.75   0.25
V64     V     0.75   0.75   0.75
loop_
_geom_bond_atom_site_label_1
_geom_bond_atom_site_label_2
_geom_bond_distance
_geom_bond_site_symmetry_2
_ccdc_geom_bond_type
Er1     Er17    10.628   .     S
Er1     Er25    10.628   .     S
Er1     Er27    10.628   1_545     S
Er1     Er19    10.628   1_545     S
Er1     Er47    10.628   1_545     S
Er1     Er37    10.628   .     S
Er1     Er33    10.628   .     S
Er1     Er43    10.628   1_545     S
Er1     V57    9.702   .     S
Er1     V53    9.702   .     S
Er1     V59    9.702   1_545     S
Er1     V49    9.702   .     S
Er1     Er9    8.678   .     S
Er1     Er10    8.678   1_554     S
Er2     Er18    10.628   .     S
Er2     Er26    10.628   .     S
Er2     Er28    10.628   1_545     S
Er2     Er20    10.628   1_545     S
Er2     Er48    10.628   1_545     S
Er2     Er38    10.628   .     S
Er2     Er34    10.628   .     S
Er2     Er44    10.628   1_545     S
Er2     V58    9.702   .     S
Er2     V54    9.702   .     S
Er2     V60    9.702   1_545     S
Er2     V50    9.702   .     S
Er2     Er10    8.678   .     S
Er2     Er9    8.678   .     S
Er3     Er19    10.628   .     S
Er3     Er27    10.628   .     S
Er3     Er25    10.628   .     S
Er3     Er17    10.628   .     S
Er3     Er45    10.628   .     S
Er3     Er39    10.628   .     S
Er3     Er35    10.628   .     S
Er3     Er41    10.628   .     S
Er3     V59    9.702   .     S
Er3     V55    9.702   .     S
Er3     V57    9.702   .     S
Er3     V51    9.702   .     S
Er3     Er11    8.678   .     S
Er3     Er12    8.678   1_554     S
Er4     Er20    10.628   .     S
Er4     Er28    10.628   .     S
Er4     Er26    10.628   .     S
Er4     Er18    10.628   .     S
Er4     Er46    10.628   .     S
Er4     Er40    10.628   .     S
Er4     Er36    10.628   .     S
Er4     Er42    10.628   .     S
Er4     V60    9.702   .     S
Er4     V56    9.702   .     S
Er4     V58    9.702   .     S
Er4     V52    9.702   .     S
Er4     Er12    8.678   .     S
Er4     Er11    8.678   .     S
Er5     Er21    10.628   .     S
Er5     Er29    10.628   .     S
Er5     Er31    10.628   1_545     S
Er5     Er23    10.628   1_545     S
Er5     Er43    10.628   1_645     S
Er5     Er33    10.628   1_655     S
Er5     Er37    10.628   .     S
Er5     Er47    10.628   1_545     S
Er5     V61    9.702   .     S
Er5     V49    9.702   1_655     S
Er5     V63    9.702   1_545     S
Er5     V53    9.702   .     S
Er5     Er13    8.678   .     S
Er5     Er14    8.678   1_554     S
Er6     Er22    10.628   .     S
Er6     Er30    10.628   .     S
Er6     Er32    10.628   1_545     S
Er6     Er24    10.628   1_545     S
Er6     Er44    10.628   1_645     S
Er6     Er34    10.628   1_655     S
Er6     Er38    10.628   .     S
Er6     Er48    10.628   1_545     S
Er6     V62    9.702   .     S
Er6     V50    9.702   1_655     S
Er6     V64    9.702   1_545     S
Er6     V54    9.702   .     S
Er6     Er14    8.678   .     S
Er6     Er13    8.678   .     S
Er7     Er23    10.628   .     S
Er7     Er31    10.628   .     S
Er7     Er29    10.628   .     S
Er7     Er21    10.628   .     S
Er7     Er41    10.628   1_655     S
Er7     Er35    10.628   1_655     S
Er7     Er39    10.628   .     S
Er7     Er45    10.628   .     S
Er7     V63    9.702   .     S
Er7     V51    9.702   1_655     S
Er7     V61    9.702   .     S
Er7     V55    9.702   .     S
Er7     Er15    8.678   .     S
Er7     Er16    8.678   1_554     S
Er8     Er24    10.628   .     S
Er8     Er32    10.628   .     S
Er8     Er30    10.628   .     S
Er8     Er22    10.628   .     S
Er8     Er42    10.628   1_655     S
Er8     Er36    10.628   1_655     S
Er8     Er40    10.628   .     S
Er8     Er46    10.628   .     S
Er8     V64    9.702   .     S
Er8     V52    9.702   1_655     S
Er8     V62    9.702   .     S
Er8     V56    9.702   .     S
Er8     Er16    8.678   .     S
Er8     Er15    8.678   .     S
Er9     Er18    10.628   .     S
Er9     Er26    10.628   .     S
Er9     Er28    10.628   1_545     S
Er9     Er20    10.628   1_545     S
Er9     Er37    10.628   .     S
Er9     Er47    10.628   1_545     S
Er9     Er43    10.628   1_545     S
Er9     Er33    10.628   .     S
Er9     V57    9.702   .     S
Er9     V54    9.702   .     S
Er9     V59    9.702   1_545     S
Er9     V50    9.702   .     S
Er10     Er17    10.628   1_556     S
Er10     Er25    10.628   1_556     S
Er10     Er27    10.628   1_546     S
Er10     Er19    10.628   1_546     S
Er10     Er38    10.628   .     S
Er10     Er48    10.628   1_545     S
Er10     Er44    10.628   1_545     S
Er10     Er34    10.628   .     S
Er10     V58    9.702   .     S
Er10     V53    9.702   1_556     S
Er10     V60    9.702   1_545     S
Er10     V49    9.702   1_556     S
Er10     Er1    8.678   1_556     S
Er11     Er20    10.628   .     S
Er11     Er28    10.628   .     S
Er11     Er26    10.628   .     S
Er11     Er18    10.628   .     S
Er11     Er39    10.628   .     S
Er11     Er45    10.628   .     S
Er11     Er41    10.628   .     S
Er11     Er35    10.628   .     S
Er11     V59    9.702   .     S
Er11     V56    9.702   .     S
Er11     V57    9.702   .     S
Er11     V52    9.702   .     S
Er12     Er19    10.628   1_556     S
Er12     Er27    10.628   1_556     S
Er12     Er25    10.628   1_556     S
Er12     Er17    10.628   1_556     S
Er12     Er40    10.628   .     S
Er12     Er46    10.628   .     S
Er12     Er42    10.628   .     S
Er12     Er36    10.628   .     S
Er12     V60    9.702   .     S
Er12     V55    9.702   1_556     S
Er12     V58    9.702   .     S
Er12     V51    9.702   1_556     S
Er12     Er3    8.678   1_556     S
Er13     Er22    10.628   .     S
Er13     Er30    10.628   .     S
Er13     Er32    10.628   1_545     S
Er13     Er24    10.628   1_545     S
Er13     Er33    10.628   1_655     S
Er13     Er43    10.628   1_645     S
Er13     Er47    10.628   1_545     S
Er13     Er37    10.628   .     S
Er13     V61    9.702   .     S
Er13     V50    9.702   1_655     S
Er13     V63    9.702   1_545     S
Er13     V54    9.702   .     S
Er14     Er21    10.628   1_556     S
Er14     Er29    10.628   1_556     S
Er14     Er31    10.628   1_546     S
Er14     Er23    10.628   1_546     S
Er14     Er34    10.628   1_655     S
Er14     Er44    10.628   1_645     S
Er14     Er48    10.628   1_545     S
Er14     Er38    10.628   .     S
Er14     V62    9.702   .     S
Er14     V49    9.702   1_656     S
Er14     V64    9.702   1_545     S
Er14     V53    9.702   1_556     S
Er14     Er5    8.678   1_556     S
Er15     Er24    10.628   .     S
Er15     Er32    10.628   .     S
Er15     Er30    10.628   .     S
Er15     Er22    10.628   .     S
Er15     Er35    10.628   1_655     S
Er15     Er41    10.628   1_655     S
Er15     Er45    10.628   .     S
Er15     Er39    10.628   .     S
Er15     V63    9.702   .     S
Er15     V52    9.702   1_655     S
Er15     V61    9.702   .     S
Er15     V56    9.702   .     S
Er16     Er23    10.628   1_556     S
Er16     Er31    10.628   1_556     S
Er16     Er29    10.628   1_556     S
Er16     Er21    10.628   1_556     S
Er16     Er36    10.628   1_655     S
Er16     Er42    10.628   1_655     S
Er16     Er46    10.628   .     S
Er16     Er40    10.628   .     S
Er16     V64    9.702   .     S
Er16     V51    9.702   1_656     S
Er16     V62    9.702   .     S
Er16     V55    9.702   1_556     S
Er16     Er7    8.678   1_556     S
Er17     Er10    10.628   1_554     S
Er17     Er12    10.628   1_554     S
Er17     Er34    10.628   1_554     S
Er17     Er42    10.628   1_554     S
Er17     Er33    10.628   .     S
Er17     Er41    10.628   .     S
Er17     V51    9.702   .     S
Er17     V49    9.702   .     S
Er17     V57    9.702   .     S
Er17     V58    9.702   1_554     S
Er17     Er29    8.678   1_455     S
Er17     Er25    8.678   .     S
Er18     Er33    10.628   .     S
Er18     Er41    10.628   .     S
Er18     Er34    10.628   .     S
Er18     Er42    10.628   .     S
Er18     V52    9.702   .     S
Er18     V50    9.702   .     S
Er18     V58    9.702   .     S
Er18     V57    9.702   .     S
Er18     Er30    8.678   1_455     S
Er18     Er26    8.678   .     S
Er19     Er12    10.628   1_554     S
Er19     Er10    10.628   1_564     S
Er19     Er1    10.628   1_565     S
Er19     Er36    10.628   1_554     S
Er19     Er44    10.628   1_554     S
Er19     Er35    10.628   .     S
Er19     Er43    10.628   .     S
Er19     V49    9.702   1_565     S
Er19     V51    9.702   .     S
Er19     V59    9.702   .     S
Er19     V60    9.702   1_554     S
Er19     Er31    8.678   1_455     S
Er19     Er27    8.678   .     S
Er20     Er9    10.628   1_565     S
Er20     Er2    10.628   1_565     S
Er20     Er35    10.628   .     S
Er20     Er43    10.628   .     S
Er20     Er36    10.628   .     S
Er20     Er44    10.628   .     S
Er20     V50    9.702   1_565     S
Er20     V52    9.702   .     S
Er20     V60    9.702   .     S
Er20     V59    9.702   .     S
Er20     Er32    8.678   1_455     S
Er20     Er28    8.678   .     S
Er21     Er14    10.628   1_554     S
Er21     Er16    10.628   1_554     S
Er21     Er38    10.628   1_554     S
Er21     Er46    10.628   1_554     S
Er21     Er37    10.628   .     S
Er21     Er45    10.628   .     S
Er21     V55    9.702   .     S
Er21     V53    9.702   .     S
Er21     V61    9.702   .     S
Er21     V62    9.702   1_554     S
Er21     Er25    8.678   .     S
Er21     Er29    8.678   .     S
Er22     Er37    10.628   .     S
Er22     Er45    10.628   .     S
Er22     Er38    10.628   .     S
Er22     Er46    10.628   .     S
Er22     V56    9.702   .     S
Er22     V54    9.702   .     S
Er22     V62    9.702   .     S
Er22     V61    9.702   .     S
Er22     Er26    8.678   .     S
Er22     Er30    8.678   .     S
Er23     Er16    10.628   1_554     S
Er23     Er14    10.628   1_564     S
Er23     Er5    10.628   1_565     S
Er23     Er40    10.628   1_554     S
Er23     Er48    10.628   1_554     S
Er23     Er39    10.628   .     S
Er23     Er47    10.628   .     S
Er23     V53    9.702   1_565     S
Er23     V55    9.702   .     S
Er23     V63    9.702   .     S
Er23     V64    9.702   1_554     S
Er23     Er27    8.678   .     S
Er23     Er31    8.678   .     S
Er24     Er13    10.628   1_565     S
Er24     Er6    10.628   1_565     S
Er24     Er39    10.628   .     S
Er24     Er47    10.628   .     S
Er24     Er40    10.628   .     S
Er24     Er48    10.628   .     S
Er24     V54    9.702   1_565     S
Er24     V56    9.702   .     S
Er24     V64    9.702   .     S
Er24     V63    9.702   .     S
Er24     Er28    8.678   .     S
Er24     Er32    8.678   .     S
Er25     Er10    10.628   1_554     S
Er25     Er12    10.628   1_554     S
Er25     Er38    10.628   1_554     S
Er25     Er46    10.628   1_554     S
Er25     Er37    10.628   .     S
Er25     Er45    10.628   .     S
Er25     V55    9.702   .     S
Er25     V53    9.702   .     S
Er25     V57    9.702   .     S
Er25     V58    9.702   1_554     S
Er26     Er37    10.628   .     S
Er26     Er45    10.628   .     S
Er26     Er38    10.628   .     S
Er26     Er46    10.628   .     S
Er26     V56    9.702   .     S
Er26     V54    9.702   .     S
Er26     V58    9.702   .     S
Er26     V57    9.702   .     S
Er27     Er12    10.628   1_554     S
Er27     Er1    10.628   1_565     S
Er27     Er10    10.628   1_564     S
Er27     Er40    10.628   1_554     S
Er27     Er48    10.628   1_554     S
Er27     Er39    10.628   .     S
Er27     Er47    10.628   .     S
Er27     V53    9.702   1_565     S
Er27     V55    9.702   .     S
Er27     V59    9.702   .     S
Er27     V60    9.702   1_554     S
Er28     Er2    10.628   1_565     S
Er28     Er9    10.628   1_565     S
Er28     Er39    10.628   .     S
Er28     Er47    10.628   .     S
Er28     Er40    10.628   .     S
Er28     Er48    10.628   .     S
Er28     V54    9.702   1_565     S
Er28     V56    9.702   .     S
Er28     V60    9.702   .     S
Er28     V59    9.702   .     S
Er29     Er14    10.628   1_554     S
Er29     Er16    10.628   1_554     S
Er29     Er34    10.628   1_654     S
Er29     Er42    10.628   1_654     S
Er29     Er33    10.628   1_655     S
Er29     Er41    10.628   1_655     S
Er29     V51    9.702   1_655     S
Er29     V49    9.702   1_655     S
Er29     V61    9.702   .     S
Er29     V62    9.702   1_554     S
Er29     Er17    8.678   1_655     S
Er30     Er33    10.628   1_655     S
Er30     Er41    10.628   1_655     S
Er30     Er34    10.628   1_655     S
Er30     Er42    10.628   1_655     S
Er30     V52    9.702   1_655     S
Er30     V50    9.702   1_655     S
Er30     V62    9.702   .     S
Er30     V61    9.702   .     S
Er30     Er18    8.678   1_655     S
Er31     Er16    10.628   1_554     S
Er31     Er5    10.628   1_565     S
Er31     Er14    10.628   1_564     S
Er31     Er36    10.628   1_654     S
Er31     Er44    10.628   1_654     S
Er31     Er35    10.628   1_655     S
Er31     Er43    10.628   1_655     S
Er31     V49    9.702   1_665     S
Er31     V51    9.702   1_655     S
Er31     V63    9.702   .     S
Er31     V64    9.702   1_554     S
Er31     Er19    8.678   1_655     S
Er32     Er6    10.628   1_565     S
Er32     Er13    10.628   1_565     S
Er32     Er35    10.628   1_655     S
Er32     Er43    10.628   1_655     S
Er32     Er36    10.628   1_655     S
Er32     Er44    10.628   1_655     S
Er32     V50    9.702   1_665     S
Er32     V52    9.702   1_655     S
Er32     V64    9.702   .     S
Er32     V63    9.702   .     S
Er32     Er20    8.678   1_655     S
Er33     Er30    10.628   1_455     S
Er33     Er5    10.628   1_455     S
Er33     Er13    10.628   1_455     S
Er33     Er29    10.628   1_455     S
Er33     V57    9.702   .     S
Er33     V61    9.702   1_455     S
Er33     V50    9.702   .     S
Er33     V49    9.702   .     S
Er33     Er41    8.678   .     S
Er33     Er43    8.678   1_545     S
Er34     Er29    10.628   1_456     S
Er34     Er17    10.628   1_556     S
Er34     Er6    10.628   1_455     S
Er34     Er14    10.628   1_455     S
Er34     Er30    10.628   1_455     S
Er34     V58    9.702   .     S
Er34     V62    9.702   1_455     S
Er34     V49    9.702   1_556     S
Er34     V50    9.702   .     S
Er34     Er42    8.678   .     S
Er34     Er44    8.678   1_545     S
Er35     Er32    10.628   1_455     S
Er35     Er7    10.628   1_455     S
Er35     Er15    10.628   1_455     S
Er35     Er31    10.628   1_455     S
Er35     V59    9.702   .     S
Er35     V63    9.702   1_455     S
Er35     V52    9.702   .     S
Er35     V51    9.702   .     S
Er35     Er43    8.678   .     S
Er35     Er41    8.678   .     S
Er36     Er31    10.628   1_456     S
Er36     Er19    10.628   1_556     S
Er36     Er8    10.628   1_455     S
Er36     Er16    10.628   1_455     S
Er36     Er32    10.628   1_455     S
Er36     V60    9.702   .     S
Er36     V64    9.702   1_455     S
Er36     V51    9.702   1_556     S
Er36     V52    9.702   .     S
Er36     Er44    8.678   .     S
Er36     Er42    8.678   .     S
Er37     V61    9.702   .     S
Er37     V57    9.702   .     S
Er37     V54    9.702   .     S
Er37     V53    9.702   .     S
Er37     Er45    8.678   .     S
Er37     Er47    8.678   1_545     S
Er38     Er25    10.628   1_556     S
Er38     Er21    10.628   1_556     S
Er38     V62    9.702   .     S
Er38     V58    9.702   .     S
Er38     V53    9.702   1_556     S
Er38     V54    9.702   .     S
Er38     Er46    8.678   .     S
Er38     Er48    8.678   1_545     S
Er39     V63    9.702   .     S
Er39     V59    9.702   .     S
Er39     V56    9.702   .     S
Er39     V55    9.702   .     S
Er39     Er47    8.678   .     S
Er39     Er45    8.678   .     S
Er40     Er27    10.628   1_556     S
Er40     Er23    10.628   1_556     S
Er40     V64    9.702   .     S
Er40     V60    9.702   .     S
Er40     V55    9.702   1_556     S
Er40     V56    9.702   .     S
Er40     Er48    8.678   .     S
Er40     Er46    8.678   .     S
Er41     Er30    10.628   1_455     S
Er41     Er7    10.628   1_455     S
Er41     Er15    10.628   1_455     S
Er41     Er29    10.628   1_455     S
Er41     V57    9.702   .     S
Er41     V61    9.702   1_455     S
Er41     V52    9.702   .     S
Er41     V51    9.702   .     S
Er42     Er17    10.628   1_556     S
Er42     Er29    10.628   1_456     S
Er42     Er8    10.628   1_455     S
Er42     Er16    10.628   1_455     S
Er42     Er30    10.628   1_455     S
Er42     V58    9.702   .     S
Er42     V62    9.702   1_455     S
Er42     V51    9.702   1_556     S
Er42     V52    9.702   .     S
Er43     Er32    10.628   1_455     S
Er43     Er5    10.628   1_465     S
Er43     Er13    10.628   1_465     S
Er43     Er1    10.628   1_565     S
Er43     Er9    10.628   1_565     S
Er43     Er31    10.628   1_455     S
Er43     V59    9.702   .     S
Er43     V63    9.702   1_455     S
Er43     V50    9.702   1_565     S
Er43     V49    9.702   1_565     S
Er43     Er33    8.678   1_565     S
Er44     Er19    10.628   1_556     S
Er44     Er31    10.628   1_456     S
Er44     Er6    10.628   1_465     S
Er44     Er14    10.628   1_465     S
Er44     Er2    10.628   1_565     S
Er44     Er10    10.628   1_565     S
Er44     Er32    10.628   1_455     S
Er44     V60    9.702   .     S
Er44     V64    9.702   1_455     S
Er44     V49    9.702   1_566     S
Er44     V50    9.702   1_565     S
Er44     Er34    8.678   1_565     S
Er45     V61    9.702   .     S
Er45     V57    9.702   .     S
Er45     V56    9.702   .     S
Er45     V55    9.702   .     S
Er46     Er21    10.628   1_556     S
Er46     Er25    10.628   1_556     S
Er46     V62    9.702   .     S
Er46     V58    9.702   .     S
Er46     V55    9.702   1_556     S
Er46     V56    9.702   .     S
Er47     Er1    10.628   1_565     S
Er47     Er9    10.628   1_565     S
Er47     Er5    10.628   1_565     S
Er47     Er13    10.628   1_565     S
Er47     V63    9.702   .     S
Er47     V59    9.702   .     S
Er47     V54    9.702   1_565     S
Er47     V53    9.702   1_565     S
Er47     Er37    8.678   1_565     S
Er48     Er23    10.628   1_556     S
Er48     Er27    10.628   1_556     S
Er48     Er2    10.628   1_565     S
Er48     Er10    10.628   1_565     S
Er48     Er6    10.628   1_565     S
Er48     Er14    10.628   1_565     S
Er48     V64    9.702   .     S
Er48     V60    9.702   .     S
Er48     V53    9.702   1_566     S
Er48     V54    9.702   1_565     S
Er48     Er38    8.678   1_565     S
V49     Er19    9.702   1_545     S
V49     Er31    9.702   1_445     S
V49     Er29    9.702   1_455     S
V49     Er5    9.702   1_455     S
V49     Er14    9.702   1_454     S
V49     Er10    9.702   1_554     S
V49     Er44    9.702   1_544     S
V49     Er34    9.702   1_554     S
V49     Er43    9.702   1_545     S
V50     Er20    9.702   1_545     S
V50     Er32    9.702   1_445     S
V50     Er30    9.702   1_455     S
V50     Er6    9.702   1_455     S
V50     Er13    9.702   1_455     S
V50     Er43    9.702   1_545     S
V50     Er44    9.702   1_545     S
V51     Er29    9.702   1_455     S
V51     Er31    9.702   1_455     S
V51     Er7    9.702   1_455     S
V51     Er16    9.702   1_454     S
V51     Er12    9.702   1_554     S
V51     Er42    9.702   1_554     S
V51     Er36    9.702   1_554     S
V52     Er30    9.702   1_455     S
V52     Er32    9.702   1_455     S
V52     Er8    9.702   1_455     S
V52     Er15    9.702   1_455     S
V53     Er23    9.702   1_545     S
V53     Er27    9.702   1_545     S
V53     Er10    9.702   1_554     S
V53     Er14    9.702   1_554     S
V53     Er48    9.702   1_544     S
V53     Er38    9.702   1_554     S
V53     Er47    9.702   1_545     S
V54     Er24    9.702   1_545     S
V54     Er28    9.702   1_545     S
V54     Er47    9.702   1_545     S
V54     Er48    9.702   1_545     S
V55     Er12    9.702   1_554     S
V55     Er16    9.702   1_554     S
V55     Er46    9.702   1_554     S
V55     Er40    9.702   1_554     S
V58     Er17    9.702   1_556     S
V58     Er25    9.702   1_556     S
V59     Er9    9.702   1_565     S
V59     Er1    9.702   1_565     S
V60     Er10    9.702   1_565     S
V60     Er2    9.702   1_565     S
V60     Er19    9.702   1_556     S
V60     Er27    9.702   1_556     S
V61     Er41    9.702   1_655     S
V61     Er33    9.702   1_655     S
V62     Er42    9.702   1_655     S
V62     Er34    9.702   1_655     S
V62     Er21    9.702   1_556     S
V62     Er29    9.702   1_556     S
V63     Er43    9.702   1_655     S
V63     Er35    9.702   1_655     S
V63     Er13    9.702   1_565     S
V63     Er5    9.702   1_565     S
V64     Er44    9.702   1_655     S
V64     Er36    9.702   1_655     S
V64     Er14    9.702   1_565     S
V64     Er6    9.702   1_565     S
V64     Er23    9.702   1_556     S
V64     Er31    9.702   1_556     S
