data_bpb
_audit_creation_date              2019-12-31
_audit_creation_method            'Pymatgen'
_symmetry_space_group_name_H-M    'P1'
_symmetry_Int_Tables_number       1
loop_
_symmetry_equiv_pos_as_xyz
  x,y,z
_cell_length_a                    43.2441
_cell_length_b                    43.2441
_cell_length_c                    36.3342
_cell_angle_alpha                 90.0
_cell_angle_beta                 90.0
_cell_angle_gamma                 120.0
loop_
_atom_site_label
_atom_site_type_symbol
_atom_site_fract_x
_atom_site_fract_y
_atom_site_fract_z
Er1     Er     0.0   0.5484   0.0833
Er2     Er     0.0   0.5484   0.5833
Er3     Er     0.5484   0.5484   0.1667
Er4     Er     0.5484   0.5484   0.6667
Er5     Er     1.0   0.4516   0.3333
Er6     Er     1.0   0.4516   0.8333
Er7     Er     0.4516   0.4516   0.4167
Er8     Er     0.4516   0.4516   0.9167
Er9     Er     0.4516   0.0   0.0
Er10     Er     0.4516   0.0   0.5
Er11     Er     0.5484   0.0   0.25
Er12     Er     0.5484   0.0   0.75
V13     V     0.7796   0.7796   0.1667
V14     V     0.7796   0.7796   0.6667
V15     V     1.0   0.7796   0.0833
V16     V     1.0   0.7796   0.5833
V17     V     0.2204   0.2204   0.4167
V18     V     0.2204   0.2204   0.9167
V19     V     1.0   0.2204   0.3333
V20     V     1.0   0.2204   0.8333
V21     V     0.2204   0.0   0.0
V22     V     0.2204   0.0   0.5
V23     V     0.7796   0.0   0.25
V24     V     0.7796   0.0   0.75
loop_
_geom_bond_atom_site_label_1
_geom_bond_atom_site_label_2
_geom_bond_distance
_geom_bond_site_symmetry_2
_ccdc_geom_bond_type
Er1     V15    9.998   1_455     S
Er1     Er6    10.002   1_454     S
Er1     Er5    10.002   1_455     S
Er2     V16    9.998   1_455     S
Er2     Er5    10.002   1_455     S
Er2     Er6    10.002   1_455     S
Er3     V13    9.998   .     S
Er3     Er8    10.002   1_554     S
Er3     Er7    10.002   .     S
Er4     V14    9.998   .     S
Er4     Er7    10.002   .     S
Er4     Er8    10.002   .     S
Er5     V19    9.998   .     S
Er5     Er2    10.002   1_655     S
Er5     Er1    10.002   1_655     S
Er6     V20    9.998   .     S
Er6     Er1    10.002   1_656     S
Er6     Er2    10.002   1_655     S
Er7     V17    9.998   .     S
Er8     V18    9.998   .     S
Er8     Er3    10.002   1_556     S
Er9     V21    9.998   .     S
Er9     Er12    10.002   1_554     S
Er9     Er11    10.002   .     S
Er10     V22    9.998   .     S
Er10     Er11    10.002   .     S
Er10     Er12    10.002   .     S
Er11     V23    9.998   .     S
Er12     V24    9.998   .     S
Er12     Er9    10.002   1_556     S
V13     V23    9.999   1_565     S
V13     V15    9.999   .     S
V14     V24    9.999   1_565     S
V14     V16    9.999   .     S
V15     Er1    9.998   1_655     S
V15     V21    9.999   1_665     S
V16     Er2    9.998   1_655     S
V16     V22    9.999   1_665     S
V17     V19    9.999   1_455     S
V17     V22    9.999   .     S
V18     V20    9.999   1_455     S
V18     V21    9.999   1_556     S
V19     V23    9.999   .     S
V19     V17    9.999   1_655     S
V20     V24    9.999   .     S
V20     V18    9.999   1_655     S
V21     V15    9.999   1_445     S
V21     V18    9.999   1_554     S
V22     V16    9.999   1_445     S
V23     V13    9.999   1_545     S
V24     V14    9.999   1_545     S
