data_bpc
_audit_creation_date              2019-12-31
_audit_creation_method            'Pymatgen'
_symmetry_space_group_name_H-M    'P1'
_symmetry_Int_Tables_number       1
loop_
_symmetry_equiv_pos_as_xyz
  x,y,z
_cell_length_a                    37.7188
_cell_length_b                    56.6307
_cell_length_c                    35.5179
_cell_angle_alpha                 90.0
_cell_angle_beta                 90.0
_cell_angle_gamma                 90.0
loop_
_atom_site_label
_atom_site_type_symbol
_atom_site_fract_x
_atom_site_fract_y
_atom_site_fract_z
Er1     Er     0.25   0.0558   0.8908
Er2     Er     0.75   0.0558   0.8908
V3     V     0.25   0.2221   0.9849
V4     V     0.75   0.2221   0.9849
Er5     Er     0.25   0.0558   0.6092
Er6     Er     0.75   0.0558   0.6092
V7     V     0.25   0.2221   0.5151
V8     V     0.75   0.2221   0.5151
Er9     Er     0.25   0.9442   0.3908
Er10     Er     0.75   0.9442   0.3908
V11     V     0.25   0.7779   0.4849
V12     V     0.75   0.7779   0.4849
Er13     Er     0.25   0.9442   0.1092
Er14     Er     0.75   0.9442   0.1092
V15     V     0.25   0.7779   0.0151
V16     V     0.75   0.7779   0.0151
Er17     Er     0.0   0.5558   0.8908
Er18     Er     0.5   0.5558   0.8908
V19     V     0.0   0.7221   0.9849
V20     V     0.5   0.7221   0.9849
Er21     Er     0.0   0.5558   0.6092
Er22     Er     0.5   0.5558   0.6092
V23     V     0.0   0.7221   0.5151
V24     V     0.5   0.7221   0.5151
Er25     Er     0.0   0.4442   0.3908
Er26     Er     0.5   0.4442   0.3908
V27     V     0.0   0.2779   0.4849
V28     V     0.5   0.2779   0.4849
Er29     Er     0.0   0.4442   0.1092
Er30     Er     0.5   0.4442   0.1092
V31     V     0.0   0.2779   0.0151
V32     V     0.5   0.2779   0.0151
loop_
_geom_bond_atom_site_label_1
_geom_bond_atom_site_label_2
_geom_bond_distance
_geom_bond_site_symmetry_2
_ccdc_geom_bond_type
Er1     V3    9.994   .     S
Er1     Er5    10.003   .     S
Er1     Er13    10.003   1_546     S
Er2     V4    9.994   .     S
Er2     Er6    10.003   .     S
Er2     Er14    10.003   1_546     S
V3     V31    10.003   1_556     S
V3     V32    10.003   1_556     S
V4     V32    10.003   1_556     S
V4     V31    10.003   1_656     S
Er5     V7    9.994   .     S
Er5     Er9    10.003   1_545     S
Er6     V8    9.994   .     S
Er6     Er10    10.003   1_545     S
V7     V28    10.003   .     S
V7     V27    10.003   .     S
V8     V27    10.003   1_655     S
V8     V28    10.003   .     S
Er9     V11    9.994   .     S
Er9     Er13    10.003   .     S
Er9     Er5    10.003   1_565     S
Er10     V12    9.994   .     S
Er10     Er14    10.003   .     S
Er10     Er6    10.003   1_565     S
V11     V24    10.003   .     S
V11     V23    10.003   .     S
V12     V23    10.003   1_655     S
V12     V24    10.003   .     S
Er13     V15    9.994   .     S
Er13     Er1    10.003   1_564     S
Er14     V16    9.994   .     S
Er14     Er2    10.003   1_564     S
V15     V19    10.003   1_554     S
V15     V20    10.003   1_554     S
V16     V20    10.003   1_554     S
V16     V19    10.003   1_654     S
Er17     V19    9.994   .     S
Er17     Er21    10.003   .     S
Er17     Er29    10.003   1_556     S
Er18     V20    9.994   .     S
Er18     Er22    10.003   .     S
Er18     Er30    10.003   1_556     S
V19     V15    10.003   1_556     S
V19     V16    10.003   1_456     S
V20     V16    10.003   1_556     S
V20     V15    10.003   1_556     S
Er21     V23    9.994   .     S
Er21     Er25    10.003   .     S
Er22     V24    9.994   .     S
Er22     Er26    10.003   .     S
V23     V12    10.003   1_455     S
Er25     V27    9.994   .     S
Er25     Er29    10.003   .     S
Er26     V28    9.994   .     S
Er26     Er30    10.003   .     S
V27     V8    10.003   1_455     S
Er29     V31    9.994   .     S
Er29     Er17    10.003   1_554     S
Er30     V32    9.994   .     S
Er30     Er18    10.003   1_554     S
V31     V3    10.003   1_554     S
V31     V4    10.003   1_454     S
V32     V4    10.003   1_554     S
V32     V3    10.003   1_554     S
