data_bpj
_audit_creation_date              2019-12-31
_audit_creation_method            'Pymatgen'
_symmetry_space_group_name_H-M    'P1'
_symmetry_Int_Tables_number       1
loop_
_symmetry_equiv_pos_as_xyz
  x,y,z
_cell_length_a                    45.0732
_cell_length_b                    45.0732
_cell_length_c                    35.0918
_cell_angle_alpha                 90.0
_cell_angle_beta                 90.0
_cell_angle_gamma                 90.0
loop_
_atom_site_label
_atom_site_type_symbol
_atom_site_fract_x
_atom_site_fract_y
_atom_site_fract_z
V1     V     0.268   0.3432   0.25
V2     V     0.268   0.3432   0.75
V3     V     0.3432   0.268   0.0
V4     V     0.3432   0.268   0.5
Er5     Er     0.111   0.5   0.25
Er6     Er     0.111   0.5   0.75
V7     V     0.268   0.6567   0.25
V8     V     0.268   0.6567   0.75
V9     V     0.3432   0.732   0.0
V10     V     0.3432   0.732   0.5
Er11     Er     0.5   0.889   0.0
Er12     Er     0.5   0.889   0.5
Er13     Er     0.889   0.5   0.25
Er14     Er     0.889   0.5   0.75
V15     V     0.732   0.6567   0.25
V16     V     0.732   0.6567   0.75
V17     V     0.6567   0.732   0.0
V18     V     0.6567   0.732   0.5
Er19     Er     0.5   0.111   0.0
Er20     Er     0.5   0.111   0.5
V21     V     0.6567   0.268   0.0
V22     V     0.6567   0.268   0.5
V23     V     0.732   0.3432   0.25
V24     V     0.732   0.3432   0.75
loop_
_geom_bond_atom_site_label_1
_geom_bond_atom_site_label_2
_geom_bond_distance
_geom_bond_site_symmetry_2
_ccdc_geom_bond_type
V1     V4    9.999   .     S
V1     V3    9.999   .     S
V1     Er5    9.999   .     S
V2     V3    9.999   1_556     S
V2     V4    9.999   .     S
V2     Er6    9.999   .     S
V3     V2    9.999   1_554     S
V3     Er19    9.999   .     S
V4     Er20    9.999   .     S
Er5     V7    9.999   .     S
Er5     Er13    10.005   1_455     S
Er6     V8    9.999   .     S
Er6     Er14    10.005   1_455     S
V7     V10    9.999   .     S
V7     V9    9.999   .     S
V8     V9    9.999   1_556     S
V8     V10    9.999   .     S
V9     V8    9.999   1_554     S
V9     Er11    9.999   .     S
V10     Er12    9.999   .     S
Er11     V17    9.999   .     S
Er11     Er19    10.005   1_565     S
Er12     V18    9.999   .     S
Er12     Er20    10.005   1_565     S
Er13     V23    9.999   .     S
Er13     V15    9.999   .     S
Er13     Er5    10.005   1_655     S
Er14     V24    9.999   .     S
Er14     V16    9.999   .     S
Er14     Er6    10.005   1_655     S
V15     V18    9.999   .     S
V15     V17    9.999   .     S
V16     V17    9.999   1_556     S
V16     V18    9.999   .     S
V17     V16    9.999   1_554     S
Er19     V21    9.999   .     S
Er19     Er11    10.005   1_545     S
Er20     V22    9.999   .     S
Er20     Er12    10.005   1_545     S
V21     V24    9.999   1_554     S
V21     V23    9.999   .     S
V22     V23    9.999   .     S
V22     V24    9.999   .     S
V24     V21    9.999   1_556     S
