data_bpn
_audit_creation_date              2019-12-31
_audit_creation_method            'Pymatgen'
_symmetry_space_group_name_H-M    'P1'
_symmetry_Int_Tables_number       1
loop_
_symmetry_equiv_pos_as_xyz
  x,y,z
_cell_length_a                    51.6857
_cell_length_b                    37.0472
_cell_length_c                    37.166
_cell_angle_alpha                 90.0
_cell_angle_beta                 90.0
_cell_angle_gamma                 90.0
loop_
_atom_site_label
_atom_site_type_symbol
_atom_site_fract_x
_atom_site_fract_y
_atom_site_fract_z
V1     V     0.0319   0.4677   0.6229
V2     V     0.0319   0.9677   0.6229
Er3     Er     0.2135   0.3751   0.6229
Er4     Er     0.2135   0.8751   0.6229
V5     V     0.4681   0.0323   0.6229
V6     V     0.4681   0.5323   0.6229
Er7     Er     0.2865   0.1249   0.6229
Er8     Er     0.2865   0.6249   0.6229
V9     V     0.5319   0.0323   0.8771
V10     V     0.5319   0.5323   0.8771
Er11     Er     0.7135   0.1249   0.8771
Er12     Er     0.7135   0.6249   0.8771
V13     V     0.9681   0.4677   0.8771
V14     V     0.9681   0.9677   0.8771
Er15     Er     0.7865   0.3751   0.8771
Er16     Er     0.7865   0.8751   0.8771
V17     V     0.0319   0.0323   0.1229
V18     V     0.0319   0.5323   0.1229
Er19     Er     0.2135   0.1249   0.1229
Er20     Er     0.2135   0.6249   0.1229
V21     V     0.4681   0.4677   0.1229
V22     V     0.4681   0.9677   0.1229
Er23     Er     0.2865   0.3751   0.1229
Er24     Er     0.2865   0.8751   0.1229
V25     V     0.9681   0.0323   0.3771
V26     V     0.9681   0.5323   0.3771
Er27     Er     0.7865   0.1249   0.3771
Er28     Er     0.7865   0.6249   0.3771
V29     V     0.5319   0.4677   0.3771
V30     V     0.5319   0.9677   0.3771
Er31     Er     0.7135   0.3751   0.3771
Er32     Er     0.7135   0.8751   0.3771
loop_
_geom_bond_atom_site_label_1
_geom_bond_atom_site_label_2
_geom_bond_distance
_geom_bond_site_symmetry_2
_ccdc_geom_bond_type
V1     Er3    9.995   .     S
V1     V13    10.003   1_455     S
V1     V26    10.004   1_455     S
V2     Er4    9.995   .     S
V2     V14    10.003   1_455     S
V2     V25    10.004   1_465     S
Er3     Er8    9.997   .     S
Er3     Er7    10.005   .     S
Er4     Er7    9.997   1_565     S
Er4     Er8    10.005   .     S
V5     Er7    9.995   .     S
V5     V9    10.003   .     S
V5     V30    10.004   1_545     S
V6     Er8    9.995   .     S
V6     V10    10.003   .     S
V6     V29    10.004   .     S
Er7     Er4    9.997   1_545     S
V9     Er11    9.995   .     S
V9     V22    10.004   1_546     S
V10     Er12    9.995   .     S
V10     V21    10.004   1_556     S
Er11     Er16    9.997   1_545     S
Er11     Er15    10.005   .     S
Er12     Er15    9.997   .     S
Er12     Er16    10.005   .     S
V13     Er15    9.995   .     S
V13     V1    10.003   1_655     S
V13     V18    10.004   1_656     S
V14     Er16    9.995   .     S
V14     V2    10.003   1_655     S
V14     V17    10.004   1_666     S
Er16     Er11    9.997   1_565     S
V17     Er19    9.995   .     S
V17     V25    10.003   1_455     S
V17     V14    10.004   1_444     S
V18     Er20    9.995   .     S
V18     V26    10.003   1_455     S
V18     V13    10.004   1_454     S
Er19     Er24    9.997   1_545     S
Er19     Er23    10.005   .     S
Er20     Er23    9.997   .     S
Er20     Er24    10.005   .     S
V21     Er23    9.995   .     S
V21     V29    10.003   .     S
V21     V10    10.004   1_554     S
V22     Er24    9.995   .     S
V22     V30    10.003   .     S
V22     V9    10.004   1_564     S
Er24     Er19    9.997   1_565     S
V25     V17    10.003   1_655     S
V25     Er27    9.995   .     S
V25     V2    10.004   1_645     S
V26     V18    10.003   1_655     S
V26     Er28    9.995   .     S
V26     V1    10.004   1_655     S
Er27     Er32    9.997   1_545     S
Er27     Er31    10.005   .     S
Er28     Er31    9.997   .     S
Er28     Er32    10.005   .     S
V29     Er31    9.995   .     S
V30     Er32    9.995   .     S
V30     V5    10.004   1_565     S
Er32     Er27    9.997   1_565     S
