data_bpp
_audit_creation_date              2019-12-31
_audit_creation_method            'Pymatgen'
_symmetry_space_group_name_H-M    'P1'
_symmetry_Int_Tables_number       1
loop_
_symmetry_equiv_pos_as_xyz
  x,y,z
_cell_length_a                    36.206
_cell_length_b                    34.0481
_cell_length_c                    107.6997
_cell_angle_alpha                 90.0
_cell_angle_beta                 90.0
_cell_angle_gamma                 90.0
loop_
_atom_site_label
_atom_site_type_symbol
_atom_site_fract_x
_atom_site_fract_y
_atom_site_fract_z
V1     V     0.4375   0.875   0.6447
V2     V     0.9375   0.875   0.6447
Er3     Er     0.4375   0.875   0.7375
Er4     Er     0.9375   0.875   0.7375
V5     V     0.1875   0.875   0.6053
V6     V     0.6875   0.875   0.6053
Er7     Er     0.1875   0.875   0.5125
Er8     Er     0.6875   0.875   0.5125
V9     V     0.4375   0.375   0.6053
V10     V     0.9375   0.375   0.6053
Er11     Er     0.4375   0.375   0.5125
Er12     Er     0.9375   0.375   0.5125
V13     V     0.1875   0.375   0.6447
V14     V     0.6875   0.375   0.6447
Er15     Er     0.1875   0.375   0.7375
Er16     Er     0.6875   0.375   0.7375
V17     V     0.3125   0.125   0.8553
V18     V     0.8125   0.125   0.8553
Er19     Er     0.3125   0.125   0.7625
Er20     Er     0.8125   0.125   0.7625
V21     V     0.0625   0.125   0.8947
V22     V     0.5625   0.125   0.8947
Er23     Er     0.0625   0.125   0.9875
Er24     Er     0.5625   0.125   0.9875
V25     V     0.3125   0.625   0.3553
V26     V     0.8125   0.625   0.3553
Er27     Er     0.3125   0.625   0.2625
Er28     Er     0.8125   0.625   0.2625
V29     V     0.0625   0.625   0.3947
V30     V     0.5625   0.625   0.3947
Er31     Er     0.0625   0.625   0.4875
Er32     Er     0.5625   0.625   0.4875
V33     V     0.3125   0.625   0.8947
V34     V     0.8125   0.625   0.8947
Er35     Er     0.3125   0.625   0.9875
Er36     Er     0.8125   0.625   0.9875
V37     V     0.0625   0.625   0.8553
V38     V     0.5625   0.625   0.8553
Er39     Er     0.0625   0.625   0.7625
Er40     Er     0.5625   0.625   0.7625
V41     V     0.1875   0.375   0.1053
V42     V     0.6875   0.375   0.1053
Er43     Er     0.1875   0.375   0.0125
Er44     Er     0.6875   0.375   0.0125
V45     V     0.4375   0.375   0.1447
V46     V     0.9375   0.375   0.1447
Er47     Er     0.4375   0.375   0.2375
Er48     Er     0.9375   0.375   0.2375
V49     V     0.1875   0.875   0.1447
V50     V     0.6875   0.875   0.1447
Er51     Er     0.1875   0.875   0.2375
Er52     Er     0.6875   0.875   0.2375
V53     V     0.4375   0.875   0.1053
V54     V     0.9375   0.875   0.1053
Er55     Er     0.4375   0.875   0.0125
Er56     Er     0.9375   0.875   0.0125
V57     V     0.3125   0.125   0.3947
V58     V     0.8125   0.125   0.3947
Er59     Er     0.3125   0.125   0.4875
Er60     Er     0.8125   0.125   0.4875
V61     V     0.0625   0.125   0.3553
V62     V     0.5625   0.125   0.3553
Er63     Er     0.0625   0.125   0.2625
Er64     Er     0.5625   0.125   0.2625
loop_
_geom_bond_atom_site_label_1
_geom_bond_atom_site_label_2
_geom_bond_distance
_geom_bond_site_symmetry_2
_ccdc_geom_bond_type
V1     Er3    9.993   .     S
V1     V5    9.997   .     S
V1     V6    9.997   .     S
V2     Er4    9.993   .     S
V2     V6    9.997   .     S
V2     V5    9.997   1_655     S
Er3     Er40    10.01   .     S
Er3     Er19    10.01   1_565     S
Er4     Er39    10.01   1_655     S
Er4     Er20    10.01   1_565     S
V5     Er7    9.993   .     S
V5     V2    9.997   1_455     S
V6     Er8    9.993   .     S
Er7     Er31    10.01   .     S
Er7     Er59    10.01   1_565     S
Er8     Er32    10.01   .     S
Er8     Er60    10.01   1_565     S
V9     Er11    9.993   .     S
V9     V13    9.997   .     S
V9     V14    9.997   .     S
V10     Er12    9.993   .     S
V10     V14    9.997   .     S
V10     V13    9.997   1_655     S
Er11     Er59    10.01   .     S
Er11     Er32    10.01   .     S
Er12     Er60    10.01   .     S
Er12     Er31    10.01   1_655     S
V13     Er15    9.993   .     S
V13     V10    9.997   1_455     S
V14     Er16    9.993   .     S
Er15     Er19    10.01   .     S
Er15     Er39    10.01   .     S
Er16     Er20    10.01   .     S
Er16     Er40    10.01   .     S
V17     Er19    9.993   .     S
V17     V22    9.997   .     S
V17     V21    9.997   .     S
V18     Er20    9.993   .     S
V18     V21    9.997   1_655     S
V18     V22    9.997   .     S
Er19     Er3    10.01   1_545     S
Er20     Er4    10.01   1_545     S
V21     V18    9.997   1_455     S
V21     Er23    9.993   .     S
V22     Er24    9.993   .     S
Er23     Er43    10.01   1_556     S
Er23     Er56    10.01   1_446     S
Er24     Er44    10.01   1_556     S
Er24     Er55    10.01   1_546     S
V25     Er27    9.993   .     S
V25     V30    9.997   .     S
V25     V29    9.997   .     S
V26     Er28    9.993   .     S
V26     V29    9.997   1_655     S
V26     V30    9.997   .     S
Er27     Er51    10.01   .     S
Er27     Er47    10.01   .     S
Er28     Er52    10.01   .     S
Er28     Er48    10.01   .     S
V29     V26    9.997   1_455     S
V29     Er31    9.993   .     S
V30     Er32    9.993   .     S
Er31     Er12    10.01   1_455     S
V33     Er35    9.993   .     S
V33     V38    9.997   .     S
V33     V37    9.997   .     S
V34     Er36    9.993   .     S
V34     V37    9.997   1_655     S
V34     V38    9.997   .     S
Er35     Er55    10.01   1_556     S
Er35     Er43    10.01   1_556     S
Er36     Er56    10.01   1_556     S
Er36     Er44    10.01   1_556     S
V37     V34    9.997   1_455     S
V37     Er39    9.993   .     S
V38     Er40    9.993   .     S
Er39     Er4    10.01   1_455     S
V41     Er43    9.993   .     S
V41     V45    9.997   .     S
V41     V46    9.997   1_455     S
V42     Er44    9.993   .     S
V42     V46    9.997   .     S
V42     V45    9.997   .     S
Er43     Er23    10.01   1_554     S
Er43     Er35    10.01   1_554     S
Er44     Er24    10.01   1_554     S
Er44     Er36    10.01   1_554     S
V45     Er47    9.993   .     S
V46     Er48    9.993   .     S
V46     V41    9.997   1_655     S
Er47     Er64    10.01   .     S
Er48     Er63    10.01   1_655     S
V49     Er51    9.993   .     S
V49     V53    9.997   .     S
V49     V54    9.997   1_455     S
V50     Er52    9.993   .     S
V50     V54    9.997   .     S
V50     V53    9.997   .     S
Er51     Er63    10.01   1_565     S
Er52     Er64    10.01   1_565     S
V53     Er55    9.993   .     S
V54     Er56    9.993   .     S
V54     V49    9.997   1_655     S
Er55     Er35    10.01   1_554     S
Er55     Er24    10.01   1_564     S
Er56     Er36    10.01   1_554     S
Er56     Er23    10.01   1_664     S
V57     Er59    9.993   .     S
V57     V62    9.997   .     S
V57     V61    9.997   .     S
V58     Er60    9.993   .     S
V58     V61    9.997   1_655     S
V58     V62    9.997   .     S
Er59     Er7    10.01   1_545     S
Er60     Er8    10.01   1_545     S
V61     V58    9.997   1_455     S
V61     Er63    9.993   .     S
V62     Er64    9.993   .     S
Er63     Er48    10.01   1_455     S
Er63     Er51    10.01   1_545     S
Er64     Er52    10.01   1_545     S
