data_brl
_audit_creation_date              2019-12-31
_audit_creation_method            'Pymatgen'
_symmetry_space_group_name_H-M    'P1'
_symmetry_Int_Tables_number       1
loop_
_symmetry_equiv_pos_as_xyz
  x,y,z
_cell_length_a                    33.324
_cell_length_b                    33.324
_cell_length_c                    29.8308
_cell_angle_alpha                 90.0
_cell_angle_beta                 90.0
_cell_angle_gamma                 120.0
loop_
_atom_site_label
_atom_site_type_symbol
_atom_site_fract_x
_atom_site_fract_y
_atom_site_fract_z
V1     V     0.5   0.5   0.0
V2     V     0.5   0.5   0.5
V3     V     0.0   0.5   0.0
V4     V     0.0   0.5   0.5
V5     V     0.5   0.0   0.0
V6     V     0.5   0.0   0.5
Er7     Er     1.0   0.6999   0.25
Er8     Er     1.0   0.6999   0.75
Er9     Er     1.0   0.3001   0.25
Er10     Er     1.0   0.3001   0.75
Er11     Er     0.3001   0.3001   0.25
Er12     Er     0.3001   0.3001   0.75
Er13     Er     0.3001   0.0   0.25
Er14     Er     0.3001   0.0   0.75
Er15     Er     0.6999   0.0   0.25
Er16     Er     0.6999   0.0   0.75
Er17     Er     0.6999   0.6999   0.25
Er18     Er     0.6999   0.6999   0.75
loop_
_geom_bond_atom_site_label_1
_geom_bond_atom_site_label_2
_geom_bond_distance
_geom_bond_site_symmetry_2
_ccdc_geom_bond_type
V1     Er11    10.0   .     S
V1     Er18    10.0   1_554     S
V1     Er17    10.0   .     S
V1     Er12    10.0   1_554     S
V2     Er12    10.0   .     S
V2     Er17    10.0   .     S
V2     Er18    10.0   .     S
V2     Er11    10.0   .     S
V3     Er9    10.0   1_455     S
V3     Er8    10.0   1_454     S
V3     Er7    10.0   1_455     S
V3     Er10    10.0   1_454     S
V4     Er10    10.0   1_455     S
V4     Er7    10.0   1_455     S
V4     Er8    10.0   1_455     S
V4     Er9    10.0   1_455     S
V5     Er13    10.0   .     S
V5     Er16    10.0   1_554     S
V5     Er15    10.0   .     S
V5     Er14    10.0   1_554     S
V6     Er14    10.0   .     S
V6     Er15    10.0   .     S
V6     Er16    10.0   .     S
V6     Er13    10.0   .     S
Er7     Er17    10.0   .     S
Er7     Er13    10.0   1_665     S
Er7     V4    10.0   1_655     S
Er7     V3    10.0   1_655     S
Er8     Er18    10.0   .     S
Er8     Er14    10.0   1_665     S
Er8     V3    10.0   1_656     S
Er8     V4    10.0   1_655     S
Er9     V3    10.0   1_655     S
Er9     Er15    10.0   .     S
Er9     Er11    10.0   1_655     S
Er9     V4    10.0   1_655     S
Er10     V4    10.0   1_655     S
Er10     Er16    10.0   .     S
Er10     Er12    10.0   1_655     S
Er10     V3    10.0   1_656     S
Er11     Er9    10.0   1_455     S
Er11     Er13    10.0   .     S
Er12     Er10    10.0   1_455     S
Er12     Er14    10.0   .     S
Er12     V1    10.0   1_556     S
Er13     Er7    10.0   1_445     S
Er14     Er8    10.0   1_445     S
Er14     V5    10.0   1_556     S
Er15     Er17    10.0   1_545     S
Er16     Er18    10.0   1_545     S
Er16     V5    10.0   1_556     S
Er17     Er15    10.0   1_565     S
Er18     Er16    10.0   1_565     S
Er18     V1    10.0   1_556     S
