data_bto-e
_audit_creation_date              2019-12-31
_audit_creation_method            'Pymatgen'
_symmetry_space_group_name_H-M    'P1'
_symmetry_Int_Tables_number       1
loop_
_symmetry_equiv_pos_as_xyz
  x,y,z
_cell_length_a                    40.0
_cell_length_b                    40.0
_cell_length_c                    51.9614
_cell_angle_alpha                 90.0
_cell_angle_beta                 90.0
_cell_angle_gamma                 120.0
loop_
_atom_site_label
_atom_site_type_symbol
_atom_site_fract_x
_atom_site_fract_y
_atom_site_fract_z
Er1     Er     0.1248   0.3752   0.3333
Er2     Er     0.1248   0.8752   0.3333
Er3     Er     0.6248   0.3752   0.3333
Er4     Er     0.6248   0.8752   0.3333
Er5     Er     0.3752   0.1248   0.3333
Er6     Er     0.3752   0.6248   0.3333
Er7     Er     0.8752   0.1248   0.3333
Er8     Er     0.8752   0.6248   0.3333
V9     V     0.0   0.25   0.1667
V10     V     1.0   0.75   0.1667
V11     V     0.5   0.25   0.1667
V12     V     0.5   0.75   0.1667
Er13     Er     0.3752   0.2503   0.0
Er14     Er     0.3752   0.7503   0.0
Er15     Er     0.8752   0.2503   0.0
Er16     Er     0.8752   0.7503   0.0
Er17     Er     0.1248   0.2497   0.0
Er18     Er     0.1248   0.7497   0.0
Er19     Er     0.6248   0.2497   0.0
Er20     Er     0.6248   0.7497   0.0
V21     V     0.25   0.25   0.8333
V22     V     0.25   0.75   0.8333
V23     V     0.75   0.25   0.8333
V24     V     0.75   0.75   0.8333
Er25     Er     0.2503   0.3752   0.6667
Er26     Er     0.2503   0.8752   0.6667
Er27     Er     0.7503   0.3752   0.6667
Er28     Er     0.7503   0.8752   0.6667
Er29     Er     0.2497   0.1248   0.6667
Er30     Er     0.2497   0.6248   0.6667
Er31     Er     0.7497   0.1248   0.6667
Er32     Er     0.7497   0.6248   0.6667
V33     V     0.25   0.0   0.5
V34     V     0.25   0.5   0.5
V35     V     0.75   0.0   0.5
V36     V     0.75   0.5   0.5
loop_
_geom_bond_atom_site_label_1
_geom_bond_atom_site_label_2
_geom_bond_distance
_geom_bond_site_symmetry_2
_ccdc_geom_bond_type
Er1     V9    10.0   .     S
Er1     Er7    10.0   1_455     S
Er1     V34    10.0   .     S
Er1     Er6    10.0   .     S
Er2     V10    10.0   1_455     S
Er2     Er8    10.0   1_455     S
Er2     V33    10.0   1_565     S
Er2     Er5    10.0   1_565     S
Er3     V11    10.0   .     S
Er3     Er5    10.0   .     S
Er3     V36    10.0   .     S
Er3     Er8    10.0   .     S
Er4     V12    10.0   .     S
Er4     Er6    10.0   .     S
Er4     V35    10.0   1_565     S
Er4     Er7    10.0   1_565     S
Er5     V11    10.0   .     S
Er5     Er2    10.0   1_545     S
Er5     V33    10.0   .     S
Er6     V12    10.0   .     S
Er6     V34    10.0   .     S
Er7     Er1    10.0   1_655     S
Er7     V9    10.0   1_655     S
Er7     Er4    10.0   1_545     S
Er7     V35    10.0   .     S
Er8     Er2    10.0   1_655     S
Er8     V10    10.0   .     S
Er8     V36    10.0   .     S
V9     Er7    10.0   1_455     S
V9     Er15    10.0   1_455     S
V9     Er17    10.0   .     S
V10     Er2    10.0   1_655     S
V10     Er16    10.0   .     S
V10     Er18    10.0   1_655     S
V11     Er13    10.0   .     S
V11     Er19    10.0   .     S
V12     Er14    10.0   .     S
V12     Er20    10.0   .     S
Er13     Er19    10.0   .     S
Er13     V21    10.0   1_554     S
Er13     Er17    10.0   .     S
Er14     Er20    10.0   .     S
Er14     V22    10.0   1_554     S
Er14     Er18    10.0   .     S
Er15     V9    10.0   1_655     S
Er15     Er17    10.0   1_655     S
Er15     V23    10.0   1_554     S
Er15     Er19    10.0   .     S
Er16     Er18    10.0   1_655     S
Er16     V24    10.0   1_554     S
Er16     Er20    10.0   .     S
Er17     Er15    10.0   1_455     S
Er17     V21    10.0   1_554     S
Er18     V10    10.0   1_455     S
Er18     Er16    10.0   1_455     S
Er18     V22    10.0   1_554     S
Er19     V23    10.0   1_554     S
Er20     V24    10.0   1_554     S
V21     Er13    10.0   1_556     S
V21     Er17    10.0   1_556     S
V21     Er25    10.0   .     S
V21     Er29    10.0   .     S
V22     Er14    10.0   1_556     S
V22     Er18    10.0   1_556     S
V22     Er26    10.0   .     S
V22     Er30    10.0   .     S
V23     Er15    10.0   1_556     S
V23     Er19    10.0   1_556     S
V23     Er27    10.0   .     S
V23     Er31    10.0   .     S
V24     Er16    10.0   1_556     S
V24     Er20    10.0   1_556     S
V24     Er28    10.0   .     S
V24     Er32    10.0   .     S
Er25     V34    10.0   .     S
Er25     Er30    10.0   .     S
Er25     Er29    10.0   .     S
Er26     V33    10.0   1_565     S
Er26     Er29    10.0   1_565     S
Er26     Er30    10.0   .     S
Er27     V36    10.0   .     S
Er27     Er32    10.0   .     S
Er27     Er31    10.0   .     S
Er28     V35    10.0   1_565     S
Er28     Er31    10.0   1_565     S
Er28     Er32    10.0   .     S
Er29     Er26    10.0   1_545     S
Er29     V33    10.0   .     S
Er30     V34    10.0   .     S
Er31     Er28    10.0   1_545     S
Er31     V35    10.0   .     S
Er32     V36    10.0   .     S
V33     Er2    10.0   1_545     S
V33     Er26    10.0   1_545     S
V35     Er4    10.0   1_545     S
V35     Er28    10.0   1_545     S
