data_btu
_audit_creation_date              2019-12-31
_audit_creation_method            'Pymatgen'
_symmetry_space_group_name_H-M    'P1'
_symmetry_Int_Tables_number       1
loop_
_symmetry_equiv_pos_as_xyz
  x,y,z
_cell_length_a                    34.6408
_cell_length_b                    30.0003
_cell_length_c                    40.0
_cell_angle_alpha                 90.0
_cell_angle_beta                 90.0
_cell_angle_gamma                 90.0
loop_
_atom_site_label
_atom_site_type_symbol
_atom_site_fract_x
_atom_site_fract_y
_atom_site_fract_z
V1     V     0.0   0.0   0.125
V2     V     0.0   0.0   0.625
V3     V     0.0   0.3333   0.125
V4     V     0.0   0.3333   0.625
V5     V     0.0   0.6667   0.125
V6     V     0.0   0.6667   0.625
V7     V     0.5   0.0   0.125
V8     V     0.5   0.0   0.625
V9     V     0.5   0.3333   0.125
V10     V     0.5   0.3333   0.625
V11     V     0.5   0.6667   0.125
V12     V     0.5   0.6667   0.625
Er13     Er     0.25   0.0   0.0
Er14     Er     0.25   0.0   0.5
Er15     Er     0.25   0.3333   0.0
Er16     Er     0.25   0.3333   0.5
Er17     Er     0.25   0.6667   0.0
Er18     Er     0.25   0.6667   0.5
Er19     Er     0.75   0.0   0.0
Er20     Er     0.75   0.0   0.5
Er21     Er     0.75   0.3333   0.0
Er22     Er     0.75   0.3333   0.5
Er23     Er     0.75   0.6667   0.0
Er24     Er     0.75   0.6667   0.5
V25     V     0.0   0.0   0.375
V26     V     0.0   0.0   0.875
V27     V     0.0   0.3333   0.375
V28     V     0.0   0.3333   0.875
V29     V     0.0   0.6667   0.375
V30     V     0.0   0.6667   0.875
V31     V     0.5   0.0   0.375
V32     V     0.5   0.0   0.875
V33     V     0.5   0.3333   0.375
V34     V     0.5   0.3333   0.875
V35     V     0.5   0.6667   0.375
V36     V     0.5   0.6667   0.875
loop_
_geom_bond_atom_site_label_1
_geom_bond_atom_site_label_2
_geom_bond_distance
_geom_bond_site_symmetry_2
_ccdc_geom_bond_type
V1     Er13    10.0   .     S
V1     Er19    10.0   1_455     S
V1     V26    10.0   1_554     S
V1     V25    10.0   .     S
V1     V3    10.0   .     S
V1     V5    10.0   1_545     S
V2     Er14    10.0   .     S
V2     Er20    10.0   1_455     S
V2     V25    10.0   .     S
V2     V26    10.0   .     S
V2     V4    10.0   .     S
V2     V6    10.0   1_545     S
V3     Er15    10.0   .     S
V3     Er21    10.0   1_455     S
V3     V28    10.0   1_554     S
V3     V27    10.0   .     S
V3     V5    10.0   .     S
V4     Er16    10.0   .     S
V4     Er22    10.0   1_455     S
V4     V27    10.0   .     S
V4     V28    10.0   .     S
V4     V6    10.0   .     S
V5     Er17    10.0   .     S
V5     Er23    10.0   1_455     S
V5     V30    10.0   1_554     S
V5     V29    10.0   .     S
V5     V1    10.0   1_565     S
V6     Er18    10.0   .     S
V6     Er24    10.0   1_455     S
V6     V29    10.0   .     S
V6     V30    10.0   .     S
V6     V2    10.0   1_565     S
V7     Er19    10.0   .     S
V7     Er13    10.0   .     S
V7     V32    10.0   1_554     S
V7     V31    10.0   .     S
V7     V9    10.0   .     S
V7     V11    10.0   1_545     S
V8     Er20    10.0   .     S
V8     Er14    10.0   .     S
V8     V31    10.0   .     S
V8     V32    10.0   .     S
V8     V10    10.0   .     S
V8     V12    10.0   1_545     S
V9     Er21    10.0   .     S
V9     Er15    10.0   .     S
V9     V34    10.0   1_554     S
V9     V33    10.0   .     S
V9     V11    10.0   .     S
V10     Er22    10.0   .     S
V10     Er16    10.0   .     S
V10     V33    10.0   .     S
V10     V34    10.0   .     S
V10     V12    10.0   .     S
V11     Er23    10.0   .     S
V11     Er17    10.0   .     S
V11     V36    10.0   1_554     S
V11     V35    10.0   .     S
V11     V7    10.0   1_565     S
V12     Er24    10.0   .     S
V12     Er18    10.0   .     S
V12     V35    10.0   .     S
V12     V36    10.0   .     S
V12     V8    10.0   1_565     S
Er13     V26    10.0   1_554     S
Er13     V32    10.0   1_554     S
Er13     Er15    10.0   .     S
Er13     Er17    10.0   1_545     S
Er14     V25    10.0   .     S
Er14     V31    10.0   .     S
Er14     Er16    10.0   .     S
Er14     Er18    10.0   1_545     S
Er15     V28    10.0   1_554     S
Er15     V34    10.0   1_554     S
Er15     Er17    10.0   .     S
Er16     V27    10.0   .     S
Er16     V33    10.0   .     S
Er16     Er18    10.0   .     S
Er17     V30    10.0   1_554     S
Er17     V36    10.0   1_554     S
Er17     Er13    10.0   1_565     S
Er18     V29    10.0   .     S
Er18     V35    10.0   .     S
Er18     Er14    10.0   1_565     S
Er19     V1    10.0   1_655     S
Er19     V32    10.0   1_554     S
Er19     V26    10.0   1_654     S
Er19     Er21    10.0   .     S
Er19     Er23    10.0   1_545     S
Er20     V2    10.0   1_655     S
Er20     V31    10.0   .     S
Er20     V25    10.0   1_655     S
Er20     Er22    10.0   .     S
Er20     Er24    10.0   1_545     S
Er21     V3    10.0   1_655     S
Er21     V34    10.0   1_554     S
Er21     V28    10.0   1_654     S
Er21     Er23    10.0   .     S
Er22     V4    10.0   1_655     S
Er22     V33    10.0   .     S
Er22     V27    10.0   1_655     S
Er22     Er24    10.0   .     S
Er23     V5    10.0   1_655     S
Er23     V36    10.0   1_554     S
Er23     V30    10.0   1_654     S
Er23     Er19    10.0   1_565     S
Er24     V6    10.0   1_655     S
Er24     V35    10.0   .     S
Er24     V29    10.0   1_655     S
Er24     Er20    10.0   1_565     S
V25     Er20    10.0   1_455     S
V25     V27    10.0   .     S
V25     V29    10.0   1_545     S
V26     Er13    10.0   1_556     S
V26     Er19    10.0   1_456     S
V26     V1    10.0   1_556     S
V26     V28    10.0   .     S
V26     V30    10.0   1_545     S
V27     Er22    10.0   1_455     S
V27     V29    10.0   .     S
V28     Er15    10.0   1_556     S
V28     Er21    10.0   1_456     S
V28     V3    10.0   1_556     S
V28     V30    10.0   .     S
V29     Er24    10.0   1_455     S
V29     V25    10.0   1_565     S
V30     Er17    10.0   1_556     S
V30     Er23    10.0   1_456     S
V30     V5    10.0   1_556     S
V30     V26    10.0   1_565     S
V31     V33    10.0   .     S
V31     V35    10.0   1_545     S
V32     Er19    10.0   1_556     S
V32     Er13    10.0   1_556     S
V32     V7    10.0   1_556     S
V32     V34    10.0   .     S
V32     V36    10.0   1_545     S
V33     V35    10.0   .     S
V34     Er21    10.0   1_556     S
V34     Er15    10.0   1_556     S
V34     V9    10.0   1_556     S
V34     V36    10.0   .     S
V35     V31    10.0   1_565     S
V36     Er23    10.0   1_556     S
V36     Er17    10.0   1_556     S
V36     V11    10.0   1_556     S
V36     V32    10.0   1_565     S
