data_btv
_audit_creation_date              2019-12-31
_audit_creation_method            'Pymatgen'
_symmetry_space_group_name_H-M    'P1'
_symmetry_Int_Tables_number       1
loop_
_symmetry_equiv_pos_as_xyz
  x,y,z
_cell_length_a                    29.9997
_cell_length_b                    32.254
_cell_length_c                    21.8289
_cell_angle_alpha                 90.0
_cell_angle_beta                 90.0
_cell_angle_gamma                 90.0
loop_
_atom_site_label
_atom_site_type_symbol
_atom_site_fract_x
_atom_site_fract_y
_atom_site_fract_z
V1     V     0.0   0.0   0.271
V2     V     0.0   0.5   0.271
V3     V     0.3333   0.0   0.271
V4     V     0.3333   0.5   0.271
V5     V     0.6667   0.0   0.271
V6     V     0.6667   0.5   0.271
V7     V     0.0   0.0   0.729
V8     V     0.0   0.5   0.729
V9     V     0.3333   0.0   0.729
V10     V     0.3333   0.5   0.729
V11     V     0.6667   0.0   0.729
V12     V     0.6667   0.5   0.729
Er13     Er     0.0   0.25   0.0
Er14     Er     0.0   0.75   0.0
Er15     Er     0.3333   0.25   0.0
Er16     Er     0.3333   0.75   0.0
Er17     Er     0.6667   0.25   0.0
Er18     Er     0.6667   0.75   0.0
loop_
_geom_bond_atom_site_label_1
_geom_bond_atom_site_label_2
_geom_bond_distance
_geom_bond_site_symmetry_2
_ccdc_geom_bond_type
V1     V7    10.0   .     S
V1     V3    10.0   .     S
V1     V5    10.0   1_455     S
V1     Er13    10.0   .     S
V1     Er14    10.0   1_545     S
V2     V8    10.0   .     S
V2     V4    10.0   .     S
V2     V6    10.0   1_455     S
V2     Er14    10.0   .     S
V2     Er13    10.0   .     S
V3     V9    10.0   .     S
V3     V5    10.0   .     S
V3     Er15    10.0   .     S
V3     Er16    10.0   1_545     S
V4     V10    10.0   .     S
V4     V6    10.0   .     S
V4     Er16    10.0   .     S
V4     Er15    10.0   .     S
V5     V11    10.0   .     S
V5     V1    10.0   1_655     S
V5     Er17    10.0   .     S
V5     Er18    10.0   1_545     S
V6     V12    10.0   .     S
V6     V2    10.0   1_655     S
V6     Er18    10.0   .     S
V6     Er17    10.0   .     S
V7     V9    10.0   .     S
V7     V11    10.0   1_455     S
V7     Er13    10.0   1_556     S
V7     Er14    10.0   1_546     S
V8     V10    10.0   .     S
V8     V12    10.0   1_455     S
V8     Er14    10.0   1_556     S
V8     Er13    10.0   1_556     S
V9     V11    10.0   .     S
V9     Er15    10.0   1_556     S
V9     Er16    10.0   1_546     S
V10     V12    10.0   .     S
V10     Er16    10.0   1_556     S
V10     Er15    10.0   1_556     S
V11     V7    10.0   1_655     S
V11     Er17    10.0   1_556     S
V11     Er18    10.0   1_546     S
V12     V8    10.0   1_655     S
V12     Er18    10.0   1_556     S
V12     Er17    10.0   1_556     S
Er13     Er15    10.0   .     S
Er13     Er17    10.0   1_455     S
Er13     V7    10.0   1_554     S
Er13     V8    10.0   1_554     S
Er14     Er16    10.0   .     S
Er14     Er18    10.0   1_455     S
Er14     V8    10.0   1_554     S
Er14     V7    10.0   1_564     S
Er14     V1    10.0   1_565     S
Er15     Er17    10.0   .     S
Er15     V9    10.0   1_554     S
Er15     V10    10.0   1_554     S
Er16     Er18    10.0   .     S
Er16     V10    10.0   1_554     S
Er16     V9    10.0   1_564     S
Er16     V3    10.0   1_565     S
Er17     Er13    10.0   1_655     S
Er17     V11    10.0   1_554     S
Er17     V12    10.0   1_554     S
Er18     Er14    10.0   1_655     S
Er18     V12    10.0   1_554     S
Er18     V11    10.0   1_564     S
Er18     V5    10.0   1_565     S
