data_bvh
_audit_creation_date              2019-12-31
_audit_creation_method            'Pymatgen'
_symmetry_space_group_name_H-M    'P1'
_symmetry_Int_Tables_number       1
loop_
_symmetry_equiv_pos_as_xyz
  x,y,z
_cell_length_a                    32.619
_cell_length_b                    31.8058
_cell_length_c                    43.1925
_cell_angle_alpha                 90.0
_cell_angle_beta                 90.0
_cell_angle_gamma                 90.0
loop_
_atom_site_label
_atom_site_type_symbol
_atom_site_fract_x
_atom_site_fract_y
_atom_site_fract_z
V1     V     0.4993   0.5928   0.5666
V2     V     0.9993   0.5928   0.5666
V3     V     0.0007   0.9072   0.5666
V4     V     0.5007   0.9072   0.5666
Er5     Er     0.25   0.75   0.634
Er6     Er     0.75   0.75   0.634
V7     V     0.2507   0.4072   0.5666
V8     V     0.7507   0.4072   0.5666
V9     V     0.2493   0.0928   0.5666
V10     V     0.7493   0.0928   0.5666
Er11     Er     0.0   0.25   0.634
Er12     Er     0.5   0.25   0.634
V13     V     0.0007   0.4072   0.4334
V14     V     0.5007   0.4072   0.4334
V15     V     0.4993   0.0928   0.4334
V16     V     0.9993   0.0928   0.4334
Er17     Er     0.25   0.25   0.366
Er18     Er     0.75   0.25   0.366
V19     V     0.2507   0.9072   0.4334
V20     V     0.7507   0.9072   0.4334
V21     V     0.2493   0.5928   0.4334
V22     V     0.7493   0.5928   0.4334
Er23     Er     0.0   0.75   0.366
Er24     Er     0.5   0.75   0.366
V25     V     0.2507   0.5928   0.0666
V26     V     0.7507   0.5928   0.0666
V27     V     0.2493   0.9072   0.0666
V28     V     0.7493   0.9072   0.0666
Er29     Er     0.0   0.75   0.134
Er30     Er     0.5   0.75   0.134
V31     V     0.2507   0.0928   0.9334
V32     V     0.7507   0.0928   0.9334
V33     V     0.2493   0.4072   0.9334
V34     V     0.7493   0.4072   0.9334
Er35     Er     0.0   0.25   0.866
Er36     Er     0.5   0.25   0.866
V37     V     0.4993   0.9072   0.9334
V38     V     0.9993   0.9072   0.9334
V39     V     0.0007   0.5928   0.9334
V40     V     0.5007   0.5928   0.9334
Er41     Er     0.25   0.75   0.866
Er42     Er     0.75   0.75   0.866
V43     V     0.4993   0.4072   0.0666
V44     V     0.9993   0.4072   0.0666
V45     V     0.0007   0.0928   0.0666
V46     V     0.5007   0.0928   0.0666
Er47     Er     0.25   0.25   0.134
Er48     Er     0.75   0.25   0.134
loop_
_geom_bond_atom_site_label_1
_geom_bond_atom_site_label_2
_geom_bond_distance
_geom_bond_site_symmetry_2
_ccdc_geom_bond_type
V1     V7    10.029   .     S
V1     Er6    10.017   .     S
V1     V21    9.982   .     S
V1     V4    9.998   .     S
V1     V22    9.982   .     S
V1     Er24    10.004   .     S
V1     Er5    9.977   .     S
V2     V8    10.029   .     S
V2     Er5    10.017   1_655     S
V2     V22    9.982   .     S
V2     V3    9.998   1_655     S
V2     V21    9.982   1_655     S
V2     Er23    10.004   1_655     S
V2     Er6    9.977   .     S
V3     Er6    10.017   1_455     S
V3     V9    10.029   1_565     S
V3     V2    9.998   1_455     S
V3     V19    9.982   .     S
V3     V20    9.982   1_455     S
V3     Er23    10.004   .     S
V3     Er5    9.977   .     S
V4     Er5    10.017   .     S
V4     V10    10.029   1_565     S
V4     V20    9.982   .     S
V4     V19    9.982   .     S
V4     Er24    10.004   .     S
V4     Er6    9.977   .     S
Er5     V2    10.017   1_455     S
Er5     Er41    10.023   .     S
Er5     V21    10.004   .     S
Er5     V19    10.004   .     S
Er6     V3    10.017   1_655     S
Er6     Er42    10.023   .     S
Er6     V22    10.004   .     S
Er6     V20    10.004   .     S
V7     Er11    10.017   .     S
V7     V9    9.998   .     S
V7     V14    9.982   .     S
V7     V13    9.982   .     S
V7     Er17    10.004   .     S
V7     Er12    9.977   .     S
V8     Er12    10.017   .     S
V8     V10    9.998   .     S
V8     V13    9.982   1_655     S
V8     V14    9.982   .     S
V8     Er18    10.004   .     S
V8     Er11    9.977   1_655     S
V9     Er12    10.017   .     S
V9     V3    10.029   1_545     S
V9     V16    9.982   1_455     S
V9     V15    9.982   .     S
V9     Er17    10.004   .     S
V9     Er11    9.977   .     S
V10     Er11    10.017   1_655     S
V10     V4    10.029   1_545     S
V10     V15    9.982   .     S
V10     V16    9.982   .     S
V10     Er18    10.004   .     S
V10     Er12    9.977   .     S
Er11     V10    10.017   1_455     S
Er11     Er35    10.023   .     S
Er11     V13    10.004   .     S
Er11     V16    10.004   1_455     S
Er11     V8    9.977   1_455     S
Er12     Er36    10.023   .     S
Er12     V14    10.004   .     S
Er12     V15    10.004   .     S
V13     Er18    10.017   1_455     S
V13     V21    10.029   .     S
V13     V16    9.998   1_455     S
V13     V8    9.982   1_455     S
V13     Er17    9.977   .     S
V14     Er17    10.017   .     S
V14     V22    10.029   .     S
V14     V15    9.998   .     S
V14     Er18    9.977   .     S
V15     Er18    10.017   .     S
V15     V19    10.029   1_545     S
V15     Er17    9.977   .     S
V16     Er17    10.017   1_655     S
V16     V20    10.029   1_545     S
V16     V13    9.998   1_655     S
V16     V9    9.982   1_655     S
V16     Er11    10.004   1_655     S
V16     Er18    9.977   .     S
Er17     V16    10.017   1_455     S
Er17     Er47    10.023   .     S
Er18     V13    10.017   1_655     S
Er18     Er48    10.023   .     S
V19     Er23    10.017   .     S
V19     V15    10.029   1_565     S
V19     V21    9.998   .     S
V19     Er24    9.977   .     S
V20     Er24    10.017   .     S
V20     V16    10.029   1_565     S
V20     V22    9.998   .     S
V20     V3    9.982   1_655     S
V20     Er23    9.977   1_655     S
V21     Er24    10.017   .     S
V21     V2    9.982   1_455     S
V21     Er23    9.977   .     S
V22     Er23    10.017   1_655     S
V22     Er24    9.977   .     S
Er23     V22    10.017   1_455     S
Er23     Er29    10.023   .     S
Er23     V2    10.004   1_455     S
Er23     V20    9.977   1_455     S
Er24     Er30    10.023   .     S
V25     Er29    10.017   .     S
V25     V43    10.029   .     S
V25     V27    9.998   .     S
V25     V40    9.982   1_554     S
V25     V39    9.982   1_554     S
V25     Er41    10.004   1_554     S
V25     Er30    9.977   .     S
V26     Er30    10.017   .     S
V26     V44    10.029   .     S
V26     V28    9.998   .     S
V26     V39    9.982   1_654     S
V26     V40    9.982   1_554     S
V26     Er42    10.004   1_554     S
V26     Er29    9.977   1_655     S
V27     Er30    10.017   .     S
V27     V45    10.029   1_565     S
V27     V37    9.982   1_554     S
V27     Er41    10.004   1_554     S
V27     V38    9.982   1_454     S
V27     Er29    9.977   .     S
V28     Er29    10.017   1_655     S
V28     V46    10.029   1_565     S
V28     V38    9.982   1_554     S
V28     Er42    10.004   1_554     S
V28     V37    9.982   1_554     S
V28     Er30    9.977   .     S
Er29     V28    10.017   1_455     S
Er29     V39    10.004   1_554     S
Er29     V38    10.004   1_454     S
Er29     V26    9.977   1_455     S
Er30     V40    10.004   1_554     S
Er30     V37    10.004   1_554     S
V31     Er35    10.017   .     S
V31     V37    10.029   1_545     S
V31     V33    9.998   .     S
V31     V46    9.982   1_556     S
V31     V45    9.982   1_556     S
V31     Er47    10.004   1_556     S
V31     Er36    9.977   .     S
V32     Er36    10.017   .     S
V32     V38    10.029   1_545     S
V32     V34    9.998   .     S
V32     V45    9.982   1_656     S
V32     V46    9.982   1_556     S
V32     Er48    10.004   1_556     S
V32     Er35    9.977   1_655     S
V33     Er36    10.017   .     S
V33     V39    10.029   .     S
V33     V43    9.982   1_556     S
V33     Er47    10.004   1_556     S
V33     V44    9.982   1_456     S
V33     Er35    9.977   .     S
V34     Er35    10.017   1_655     S
V34     V40    10.029   .     S
V34     V44    9.982   1_556     S
V34     Er48    10.004   1_556     S
V34     V43    9.982   1_556     S
V34     Er36    9.977   .     S
Er35     V34    10.017   1_455     S
Er35     V45    10.004   1_556     S
Er35     V44    10.004   1_456     S
Er35     V32    9.977   1_455     S
Er36     V46    10.004   1_556     S
Er36     V43    10.004   1_556     S
V37     V31    10.029   1_565     S
V37     Er42    10.017   .     S
V37     V27    9.982   1_556     S
V37     V40    9.998   .     S
V37     V28    9.982   1_556     S
V37     Er30    10.004   1_556     S
V37     Er41    9.977   .     S
V38     V32    10.029   1_565     S
V38     Er41    10.017   1_655     S
V38     V28    9.982   1_556     S
V38     V39    9.998   1_655     S
V38     V27    9.982   1_656     S
V38     Er29    10.004   1_656     S
V38     Er42    9.977   .     S
V39     Er42    10.017   1_455     S
V39     V26    9.982   1_456     S
V39     Er29    10.004   1_556     S
V39     V38    9.998   1_455     S
V39     V25    9.982   1_556     S
V39     Er41    9.977   .     S
V40     Er41    10.017   .     S
V40     V25    9.982   1_556     S
V40     Er30    10.004   1_556     S
V40     V26    9.982   1_556     S
V40     Er42    9.977   .     S
Er41     V38    10.017   1_455     S
Er41     V27    10.004   1_556     S
Er41     V25    10.004   1_556     S
Er42     V39    10.017   1_655     S
Er42     V28    10.004   1_556     S
Er42     V26    10.004   1_556     S
V43     Er48    10.017   .     S
V43     V33    9.982   1_554     S
V43     V46    9.998   .     S
V43     V34    9.982   1_554     S
V43     Er36    10.004   1_554     S
V43     Er47    9.977   .     S
V44     Er47    10.017   1_655     S
V44     V34    9.982   1_554     S
V44     V45    9.998   1_655     S
V44     V33    9.982   1_654     S
V44     Er35    10.004   1_654     S
V44     Er48    9.977   .     S
V45     Er48    10.017   1_455     S
V45     V27    10.029   1_545     S
V45     V44    9.998   1_455     S
V45     V32    9.982   1_454     S
V45     Er35    10.004   1_554     S
V45     V31    9.982   1_554     S
V45     Er47    9.977   .     S
V46     Er47    10.017   .     S
V46     V28    10.029   1_545     S
V46     V31    9.982   1_554     S
V46     Er36    10.004   1_554     S
V46     V32    9.982   1_554     S
V46     Er48    9.977   .     S
Er47     V44    10.017   1_455     S
Er47     V33    10.004   1_554     S
Er47     V31    10.004   1_554     S
Er48     V45    10.017   1_655     S
Er48     V34    10.004   1_554     S
Er48     V32    10.004   1_554     S
