data_bzd
_audit_creation_date              2019-12-31
_audit_creation_method            'Pymatgen'
_symmetry_space_group_name_H-M    'P1'
_symmetry_Int_Tables_number       1
loop_
_symmetry_equiv_pos_as_xyz
  x,y,z
_cell_length_a                    104.9099
_cell_length_b                    104.9099
_cell_length_c                    34.4008
_cell_angle_alpha                 90.0
_cell_angle_beta                 90.0
_cell_angle_gamma                 120.0
loop_
_atom_site_label
_atom_site_type_symbol
_atom_site_fract_x
_atom_site_fract_y
_atom_site_fract_z
Er1     Er     0.8888   0.4921   0.0
Er2     Er     0.8888   0.4921   0.5
Er3     Er     0.8888   0.3968   0.0
Er4     Er     0.8888   0.3968   0.5
Er5     Er     0.1112   0.6033   0.0
Er6     Er     0.1112   0.6033   0.5
Ti7     Ti     0.055   0.4799   0.25
Ti8     Ti     0.055   0.4799   0.75
Ti9     Ti     0.055   0.5752   0.25
Ti10     Ti     0.055   0.5752   0.75
Ti11     Ti     0.945   0.5201   0.25
Ti12     Ti     0.945   0.5201   0.75
Ti13     Ti     0.945   0.4248   0.25
Ti14     Ti     0.945   0.4248   0.75
Er15     Er     0.1112   0.5079   0.0
Er16     Er     0.1112   0.5079   0.5
V17     V     0.5152   0.3053   0.0
V18     V     0.5152   0.3053   0.5
V19     V     0.6947   0.4848   0.0
V20     V     0.6947   0.4848   0.5
Ce21     Ce     0.5714   0.3333   0.25
Ce22     Ce     0.5714   0.3333   0.75
Ce23     Ce     0.6667   0.4286   0.25
Ce24     Ce     0.6667   0.4286   0.75
V25     V     0.5152   0.2099   0.0
V26     V     0.5152   0.2099   0.5
Ce27     Ce     0.5714   0.238   0.25
Ce28     Ce     0.5714   0.238   0.75
V29     V     0.6947   0.2099   0.0
V30     V     0.6947   0.2099   0.5
Ce31     Ce     0.6667   0.238   0.25
Ce32     Ce     0.6667   0.238   0.75
V33     V     0.7901   0.3053   0.0
V34     V     0.7901   0.3053   0.5
Ce35     Ce     0.762   0.3333   0.25
Ce36     Ce     0.762   0.3333   0.75
V37     V     0.7901   0.4848   0.0
V38     V     0.7901   0.4848   0.5
Ce39     Ce     0.762   0.4286   0.25
Ce40     Ce     0.762   0.4286   0.75
Ti41     Ti     0.4248   0.4799   0.25
Ti42     Ti     0.4248   0.4799   0.75
Ti43     Ti     0.5201   0.5752   0.25
Ti44     Ti     0.5201   0.5752   0.75
Ti45     Ti     0.4799   0.4248   0.25
Ti46     Ti     0.4799   0.4248   0.75
Ti47     Ti     0.5752   0.5201   0.25
Ti48     Ti     0.5752   0.5201   0.75
Er49     Er     0.6033   0.4921   0.0
Er50     Er     0.6033   0.4921   0.5
Er51     Er     0.5079   0.3968   0.0
Er52     Er     0.5079   0.3968   0.5
Er53     Er     0.4921   0.6033   0.0
Er54     Er     0.4921   0.6033   0.5
Er55     Er     0.3968   0.5079   0.0
Er56     Er     0.3968   0.5079   0.5
Er57     Er     0.5079   0.1112   0.0
Er58     Er     0.5079   0.1112   0.5
Ti59     Ti     0.4248   0.945   0.25
Ti60     Ti     0.4248   0.945   0.75
Ti61     Ti     0.5201   0.945   0.25
Ti62     Ti     0.5201   0.945   0.75
Ti63     Ti     0.4799   0.055   0.25
Ti64     Ti     0.4799   0.055   0.75
Ti65     Ti     0.5752   0.055   0.25
Ti66     Ti     0.5752   0.055   0.75
Er67     Er     0.6033   0.1112   0.0
Er68     Er     0.6033   0.1112   0.5
Er69     Er     0.4921   0.8888   0.0
Er70     Er     0.4921   0.8888   0.5
Er71     Er     0.3968   0.8888   0.0
Er72     Er     0.3968   0.8888   0.5
V73     V     0.4848   0.7901   0.0
V74     V     0.4848   0.7901   0.5
Ce75     Ce     0.4286   0.762   0.25
Ce76     Ce     0.4286   0.762   0.75
V77     V     0.3053   0.7901   0.0
V78     V     0.3053   0.7901   0.5
Ce79     Ce     0.3333   0.762   0.25
Ce80     Ce     0.3333   0.762   0.75
V81     V     0.4848   0.6947   0.0
V82     V     0.4848   0.6947   0.5
Ce83     Ce     0.4286   0.6667   0.25
Ce84     Ce     0.4286   0.6667   0.75
Ce85     Ce     0.3333   0.5714   0.25
Ce86     Ce     0.3333   0.5714   0.75
V87     V     0.3053   0.5152   0.0
V88     V     0.3053   0.5152   0.5
V89     V     0.2099   0.5152   0.0
V90     V     0.2099   0.5152   0.5
Ce91     Ce     0.238   0.5714   0.25
Ce92     Ce     0.238   0.5714   0.75
Ce93     Ce     0.238   0.6667   0.25
Ce94     Ce     0.238   0.6667   0.75
V95     V     0.2099   0.6947   0.0
V96     V     0.2099   0.6947   0.5
loop_
_geom_bond_atom_site_label_1
_geom_bond_atom_site_label_2
_geom_bond_distance
_geom_bond_site_symmetry_2
_ccdc_geom_bond_type
Er1     Er3    9.999   .     S
Er1     Ti11    10.0   .     S
Er1     Ti12    10.0   1_554     S
Er1     V37    10.0   .     S
Er2     Er4    9.999   .     S
Er2     Ti12    10.0   .     S
Er2     Ti11    10.0   .     S
Er2     V38    10.0   .     S
Er3     Ti14    10.0   1_554     S
Er3     Ti13    10.0   .     S
Er3     V33    10.0   .     S
Er4     Ti13    10.0   .     S
Er4     Ti14    10.0   .     S
Er4     V34    10.0   .     S
Er5     Er15    9.999   .     S
Er5     Ti10    10.0   1_554     S
Er5     Ti9    10.0   .     S
Er5     V95    10.0   .     S
Er6     Er16    9.999   .     S
Er6     Ti9    10.0   .     S
Er6     Ti10    10.0   .     S
Er6     V96    10.0   .     S
Ti7     Ti9    9.999   .     S
Ti7     Ti13    9.999   1_455     S
Ti7     Er15    10.0   .     S
Ti7     Er16    10.0   .     S
Ti8     Ti10    9.999   .     S
Ti8     Ti14    9.999   1_455     S
Ti8     Er16    10.0   .     S
Ti8     Er15    10.0   1_556     S
Ti9     Ti11    9.999   1_455     S
Ti10     Er5    10.0   1_556     S
Ti10     Ti12    9.999   1_455     S
Ti11     Ti13    9.999   .     S
Ti11     Ti9    9.999   1_655     S
Ti12     Ti14    9.999   .     S
Ti12     Ti10    9.999   1_655     S
Ti12     Er1    10.0   1_556     S
Ti13     Ti7    9.999   1_655     S
Ti14     Ti8    9.999   1_655     S
Ti14     Er3    10.0   1_556     S
Er15     Ti8    10.0   1_554     S
Er15     V89    10.0   .     S
Er16     V90    10.0   .     S
V17     Er51    10.0   .     S
V17     Ce21    10.0   .     S
V17     Ce22    10.0   1_554     S
V17     V25    10.001   .     S
V18     Er52    10.0   .     S
V18     Ce22    10.0   .     S
V18     Ce21    10.0   .     S
V18     V26    10.001   .     S
V19     V37    10.001   .     S
V19     Er49    10.0   .     S
V19     Ce24    10.0   1_554     S
V19     Ce23    10.0   .     S
V20     V38    10.001   .     S
V20     Er50    10.0   .     S
V20     Ce23    10.0   .     S
V20     Ce24    10.0   .     S
Ce21     Ce27    10.001   .     S
Ce21     Ce23    9.999   .     S
Ce22     Ce28    10.001   .     S
Ce22     V17    10.0   1_556     S
Ce22     Ce24    9.999   .     S
Ce23     Ce39    10.001   .     S
Ce24     V19    10.0   1_556     S
Ce24     Ce40    10.001   .     S
V25     Er57    10.0   .     S
V25     Ce28    10.0   1_554     S
V25     Ce27    10.0   .     S
V26     Er58    10.0   .     S
V26     Ce27    10.0   .     S
V26     Ce28    10.0   .     S
Ce27     Ce31    9.999   .     S
Ce28     Ce32    9.999   .     S
Ce28     V25    10.0   1_556     S
V29     V33    10.001   .     S
V29     Er67    10.0   .     S
V29     Ce31    10.0   .     S
V29     Ce32    10.0   1_554     S
V30     V34    10.001   .     S
V30     Er68    10.0   .     S
V30     Ce32    10.0   .     S
V30     Ce31    10.0   .     S
Ce31     Ce35    10.001   .     S
Ce32     V29    10.0   1_556     S
Ce32     Ce36    10.001   .     S
V33     Ce36    10.0   1_554     S
V33     Ce35    10.0   .     S
V34     Ce35    10.0   .     S
V34     Ce36    10.0   .     S
Ce35     Ce39    9.999   .     S
Ce36     Ce40    9.999   .     S
Ce36     V33    10.0   1_556     S
V37     Ce39    10.0   .     S
V37     Ce40    10.0   1_554     S
V38     Ce40    10.0   .     S
V38     Ce39    10.0   .     S
Ce40     V37    10.0   1_556     S
Ti41     Ti43    9.999   .     S
Ti41     Ti45    9.999   .     S
Ti41     Er56    10.0   .     S
Ti41     Er55    10.0   .     S
Ti42     Ti44    9.999   .     S
Ti42     Ti46    9.999   .     S
Ti42     Er55    10.0   1_556     S
Ti42     Er56    10.0   .     S
Ti43     Ti47    9.999   .     S
Ti43     Er53    10.0   .     S
Ti43     Er54    10.0   .     S
Ti44     Ti48    9.999   .     S
Ti44     Er54    10.0   .     S
Ti44     Er53    10.0   1_556     S
Ti45     Ti47    9.999   .     S
Ti45     Er51    10.0   .     S
Ti45     Er52    10.0   .     S
Ti46     Ti48    9.999   .     S
Ti46     Er52    10.0   .     S
Ti46     Er51    10.0   1_556     S
Ti47     Er50    10.0   .     S
Ti47     Er49    10.0   .     S
Ti48     Er49    10.0   1_556     S
Ti48     Er50    10.0   .     S
Er49     Er51    9.999   .     S
Er49     Ti48    10.0   1_554     S
Er50     Er52    9.999   .     S
Er51     Ti46    10.0   1_554     S
Er53     Er55    9.999   .     S
Er53     Ti44    10.0   1_554     S
Er53     V81    10.0   .     S
Er54     Er56    9.999   .     S
Er54     V82    10.0   .     S
Er55     Ti42    10.0   1_554     S
Er55     V87    10.0   .     S
Er56     V88    10.0   .     S
Er57     Er67    9.999   .     S
Er57     Ti64    10.0   1_554     S
Er57     Ti63    10.0   .     S
Er58     Er68    9.999   .     S
Er58     Ti63    10.0   .     S
Er58     Ti64    10.0   .     S
Ti59     Ti61    9.999   .     S
Ti59     Ti63    9.999   1_565     S
Ti59     Er71    10.0   .     S
Ti59     Er72    10.0   .     S
Ti60     Ti62    9.999   .     S
Ti60     Ti64    9.999   1_565     S
Ti60     Er72    10.0   .     S
Ti60     Er71    10.0   1_556     S
Ti61     Ti65    9.999   1_565     S
Ti61     Er70    10.0   .     S
Ti61     Er69    10.0   .     S
Ti62     Ti66    9.999   1_565     S
Ti62     Er69    10.0   1_556     S
Ti62     Er70    10.0   .     S
Ti63     Ti65    9.999   .     S
Ti63     Ti59    9.999   1_545     S
Ti64     Ti66    9.999   .     S
Ti64     Ti60    9.999   1_545     S
Ti64     Er57    10.0   1_556     S
Ti65     Ti61    9.999   1_545     S
Ti65     Er67    10.0   .     S
Ti65     Er68    10.0   .     S
Ti66     Ti62    9.999   1_545     S
Ti66     Er68    10.0   .     S
Ti66     Er67    10.0   1_556     S
Er67     Ti66    10.0   1_554     S
Er69     Er71    9.999   .     S
Er69     Ti62    10.0   1_554     S
Er69     V73    10.0   .     S
Er70     Er72    9.999   .     S
Er70     V74    10.0   .     S
Er71     Ti60    10.0   1_554     S
Er71     V77    10.0   .     S
Er72     V78    10.0   .     S
V73     Ce76    10.0   1_554     S
V73     Ce75    10.0   .     S
V73     V81    10.001   .     S
V74     Ce75    10.0   .     S
V74     Ce76    10.0   .     S
V74     V82    10.001   .     S
Ce75     Ce79    9.999   .     S
Ce75     Ce83    10.001   .     S
Ce76     Ce80    9.999   .     S
Ce76     V73    10.0   1_556     S
Ce76     Ce84    10.001   .     S
V77     Ce79    10.0   .     S
V77     Ce80    10.0   1_554     S
V77     V95    10.001   .     S
V78     Ce80    10.0   .     S
V78     Ce79    10.0   .     S
V78     V96    10.001   .     S
Ce79     Ce93    10.001   .     S
Ce80     Ce94    10.001   .     S
Ce80     V77    10.0   1_556     S
V81     Ce83    10.0   .     S
V81     Ce84    10.0   1_554     S
V82     Ce84    10.0   .     S
V82     Ce83    10.0   .     S
Ce83     Ce85    9.999   .     S
Ce84     Ce86    9.999   .     S
Ce84     V81    10.0   1_556     S
Ce85     Ce91    10.001   .     S
Ce85     V88    10.0   .     S
Ce85     V87    10.0   .     S
Ce86     Ce92    10.001   .     S
Ce86     V87    10.0   1_556     S
Ce86     V88    10.0   .     S
V87     Ce86    10.0   1_554     S
V87     V89    10.001   .     S
V88     V90    10.001   .     S
V89     Ce91    10.0   .     S
V89     Ce92    10.0   1_554     S
V90     Ce92    10.0   .     S
V90     Ce91    10.0   .     S
Ce91     Ce93    9.999   .     S
Ce92     V89    10.0   1_556     S
Ce92     Ce94    9.999   .     S
Ce93     V96    10.0   .     S
Ce93     V95    10.0   .     S
Ce94     V95    10.0   1_556     S
Ce94     V96    10.0   .     S
V95     Ce94    10.0   1_554     S
