data_cal
_audit_creation_date              2019-12-31
_audit_creation_method            'Pymatgen'
_symmetry_space_group_name_H-M    'P1'
_symmetry_Int_Tables_number       1
loop_
_symmetry_equiv_pos_as_xyz
  x,y,z
_cell_length_a                    41.832
_cell_length_b                    41.832
_cell_length_c                    35.3138
_cell_angle_alpha                 90.0
_cell_angle_beta                 90.0
_cell_angle_gamma                 90.0
loop_
_atom_site_label
_atom_site_type_symbol
_atom_site_fract_x
_atom_site_fract_y
_atom_site_fract_z
Er1     Er     0.25   0.25   0.375
Er2     Er     0.25   0.25   0.875
Er3     Er     0.25   0.75   0.375
Er4     Er     0.25   0.75   0.875
Er5     Er     0.75   0.25   0.375
Er6     Er     0.75   0.25   0.875
Er7     Er     0.75   0.75   0.375
Er8     Er     0.75   0.75   0.875
Er9     Er     0.25   0.25   0.125
Er10     Er     0.25   0.25   0.625
Er11     Er     0.25   0.75   0.125
Er12     Er     0.25   0.75   0.625
Er13     Er     0.75   0.25   0.125
Er14     Er     0.75   0.25   0.625
Er15     Er     0.75   0.75   0.125
Er16     Er     0.75   0.75   0.625
V17     V     0.1729   0.4229   0.25
V18     V     0.1729   0.4229   0.75
V19     V     0.1729   0.9229   0.25
V20     V     0.1729   0.9229   0.75
V21     V     0.6729   0.4229   0.25
V22     V     0.6729   0.4229   0.75
V23     V     0.6729   0.9229   0.25
V24     V     0.6729   0.9229   0.75
V25     V     0.4229   0.1729   0.0
V26     V     0.4229   0.1729   0.5
V27     V     0.4229   0.6729   0.0
V28     V     0.4229   0.6729   0.5
V29     V     0.9229   0.1729   0.0
V30     V     0.9229   0.1729   0.5
V31     V     0.9229   0.6729   0.0
V32     V     0.9229   0.6729   0.5
Er33     Er     0.0   0.0   0.125
Er34     Er     0.0   0.0   0.625
Er35     Er     0.0   0.5   0.125
Er36     Er     0.0   0.5   0.625
Er37     Er     0.5   0.0   0.125
Er38     Er     0.5   0.0   0.625
Er39     Er     0.5   0.5   0.125
Er40     Er     0.5   0.5   0.625
Er41     Er     0.0   0.0   0.375
Er42     Er     0.0   0.0   0.875
Er43     Er     0.0   0.5   0.375
Er44     Er     0.0   0.5   0.875
Er45     Er     0.5   0.0   0.375
Er46     Er     0.5   0.0   0.875
Er47     Er     0.5   0.5   0.375
Er48     Er     0.5   0.5   0.875
V49     V     0.1729   0.0771   0.0
V50     V     0.1729   0.0771   0.5
V51     V     0.1729   0.5771   0.0
V52     V     0.1729   0.5771   0.5
V53     V     0.6729   0.0771   0.0
V54     V     0.6729   0.0771   0.5
V55     V     0.6729   0.5771   0.0
V56     V     0.6729   0.5771   0.5
V57     V     0.0771   0.1729   0.25
V58     V     0.0771   0.1729   0.75
V59     V     0.0771   0.6729   0.25
V60     V     0.0771   0.6729   0.75
V61     V     0.5771   0.1729   0.25
V62     V     0.5771   0.1729   0.75
V63     V     0.5771   0.6729   0.25
V64     V     0.5771   0.6729   0.75
V65     V     0.3271   0.0771   0.25
V66     V     0.3271   0.0771   0.75
V67     V     0.3271   0.5771   0.25
V68     V     0.3271   0.5771   0.75
V69     V     0.8271   0.0771   0.25
V70     V     0.8271   0.0771   0.75
V71     V     0.8271   0.5771   0.25
V72     V     0.8271   0.5771   0.75
V73     V     0.0771   0.3271   0.0
V74     V     0.0771   0.3271   0.5
V75     V     0.0771   0.8271   0.0
V76     V     0.0771   0.8271   0.5
V77     V     0.5771   0.3271   0.0
V78     V     0.5771   0.3271   0.5
V79     V     0.5771   0.8271   0.0
V80     V     0.5771   0.8271   0.5
V81     V     0.3271   0.4229   0.0
V82     V     0.3271   0.4229   0.5
V83     V     0.3271   0.9229   0.0
V84     V     0.3271   0.9229   0.5
V85     V     0.8271   0.4229   0.0
V86     V     0.8271   0.4229   0.5
V87     V     0.8271   0.9229   0.0
V88     V     0.8271   0.9229   0.5
V89     V     0.4229   0.3271   0.25
V90     V     0.4229   0.3271   0.75
V91     V     0.4229   0.8271   0.25
V92     V     0.4229   0.8271   0.75
V93     V     0.9229   0.3271   0.25
V94     V     0.9229   0.3271   0.75
V95     V     0.9229   0.8271   0.25
V96     V     0.9229   0.8271   0.75
loop_
_geom_bond_atom_site_label_1
_geom_bond_atom_site_label_2
_geom_bond_distance
_geom_bond_site_symmetry_2
_ccdc_geom_bond_type
Er1     Er9    8.828   .     S
Er1     Er10    8.828   .     S
Er1     V26    9.067   .     S
Er1     V50    9.067   .     S
Er1     V57    9.067   .     S
Er1     V74    9.067   .     S
Er1     V82    9.067   .     S
Er1     V17    9.067   .     S
Er1     V89    9.067   .     S
Er1     V65    9.067   .     S
Er2     Er10    8.828   .     S
Er2     Er9    8.828   1_556     S
Er2     V25    9.067   1_556     S
Er2     V49    9.067   1_556     S
Er2     V58    9.067   .     S
Er2     V73    9.067   1_556     S
Er2     V81    9.067   1_556     S
Er2     V18    9.067   .     S
Er2     V90    9.067   .     S
Er2     V66    9.067   .     S
Er3     Er11    8.828   .     S
Er3     Er12    8.828   .     S
Er3     V28    9.067   .     S
Er3     V52    9.067   .     S
Er3     V59    9.067   .     S
Er3     V76    9.067   .     S
Er3     V84    9.067   .     S
Er3     V19    9.067   .     S
Er3     V91    9.067   .     S
Er3     V67    9.067   .     S
Er4     Er12    8.828   .     S
Er4     Er11    8.828   1_556     S
Er4     V27    9.067   1_556     S
Er4     V51    9.067   1_556     S
Er4     V60    9.067   .     S
Er4     V75    9.067   1_556     S
Er4     V83    9.067   1_556     S
Er4     V20    9.067   .     S
Er4     V92    9.067   .     S
Er4     V68    9.067   .     S
Er5     Er13    8.828   .     S
Er5     Er14    8.828   .     S
Er5     V30    9.067   .     S
Er5     V54    9.067   .     S
Er5     V61    9.067   .     S
Er5     V78    9.067   .     S
Er5     V86    9.067   .     S
Er5     V21    9.067   .     S
Er5     V93    9.067   .     S
Er5     V69    9.067   .     S
Er6     Er14    8.828   .     S
Er6     Er13    8.828   1_556     S
Er6     V29    9.067   1_556     S
Er6     V53    9.067   1_556     S
Er6     V62    9.067   .     S
Er6     V77    9.067   1_556     S
Er6     V85    9.067   1_556     S
Er6     V22    9.067   .     S
Er6     V94    9.067   .     S
Er6     V70    9.067   .     S
Er7     Er15    8.828   .     S
Er7     Er16    8.828   .     S
Er7     V32    9.067   .     S
Er7     V56    9.067   .     S
Er7     V63    9.067   .     S
Er7     V80    9.067   .     S
Er7     V88    9.067   .     S
Er7     V23    9.067   .     S
Er7     V95    9.067   .     S
Er7     V71    9.067   .     S
Er8     Er16    8.828   .     S
Er8     Er15    8.828   1_556     S
Er8     V31    9.067   1_556     S
Er8     V55    9.067   1_556     S
Er8     V64    9.067   .     S
Er8     V79    9.067   1_556     S
Er8     V87    9.067   1_556     S
Er8     V24    9.067   .     S
Er8     V96    9.067   .     S
Er8     V72    9.067   .     S
Er9     Er2    8.828   1_554     S
Er9     V25    9.067   .     S
Er9     V49    9.067   .     S
Er9     V57    9.067   .     S
Er9     V73    9.067   .     S
Er9     V81    9.067   .     S
Er9     V17    9.067   .     S
Er9     V89    9.067   .     S
Er9     V65    9.067   .     S
Er10     V26    9.067   .     S
Er10     V50    9.067   .     S
Er10     V58    9.067   .     S
Er10     V74    9.067   .     S
Er10     V82    9.067   .     S
Er10     V18    9.067   .     S
Er10     V90    9.067   .     S
Er10     V66    9.067   .     S
Er11     Er4    8.828   1_554     S
Er11     V27    9.067   .     S
Er11     V51    9.067   .     S
Er11     V59    9.067   .     S
Er11     V75    9.067   .     S
Er11     V83    9.067   .     S
Er11     V19    9.067   .     S
Er11     V91    9.067   .     S
Er11     V67    9.067   .     S
Er12     V28    9.067   .     S
Er12     V52    9.067   .     S
Er12     V60    9.067   .     S
Er12     V76    9.067   .     S
Er12     V84    9.067   .     S
Er12     V20    9.067   .     S
Er12     V92    9.067   .     S
Er12     V68    9.067   .     S
Er13     Er6    8.828   1_554     S
Er13     V29    9.067   .     S
Er13     V53    9.067   .     S
Er13     V61    9.067   .     S
Er13     V77    9.067   .     S
Er13     V85    9.067   .     S
Er13     V21    9.067   .     S
Er13     V93    9.067   .     S
Er13     V69    9.067   .     S
Er14     V30    9.067   .     S
Er14     V54    9.067   .     S
Er14     V62    9.067   .     S
Er14     V78    9.067   .     S
Er14     V86    9.067   .     S
Er14     V22    9.067   .     S
Er14     V94    9.067   .     S
Er14     V70    9.067   .     S
Er15     Er8    8.828   1_554     S
Er15     V31    9.067   .     S
Er15     V55    9.067   .     S
Er15     V63    9.067   .     S
Er15     V79    9.067   .     S
Er15     V87    9.067   .     S
Er15     V23    9.067   .     S
Er15     V95    9.067   .     S
Er15     V71    9.067   .     S
Er16     V32    9.067   .     S
Er16     V56    9.067   .     S
Er16     V64    9.067   .     S
Er16     V80    9.067   .     S
Er16     V88    9.067   .     S
Er16     V24    9.067   .     S
Er16     V96    9.067   .     S
Er16     V72    9.067   .     S
V17     V51    10.933   .     S
V17     V52    10.933   .     S
V17     V82    10.933   .     S
V17     V81    10.933   .     S
V17     V93    11.2   1_455     S
V17     V89    11.2   .     S
V17     V57    11.2   .     S
V17     V59    11.2   .     S
V17     V67    9.12   .     S
V17     Er35    9.067   .     S
V17     Er43    9.067   .     S
V17     V74    10.492   .     S
V17     V73    10.492   .     S
V18     V52    10.933   .     S
V18     V51    10.933   1_556     S
V18     V81    10.933   1_556     S
V18     V82    10.933   .     S
V18     V94    11.2   1_455     S
V18     V90    11.2   .     S
V18     V58    11.2   .     S
V18     V60    11.2   .     S
V18     V68    9.12   .     S
V18     Er36    9.067   .     S
V18     Er44    9.067   .     S
V18     V73    10.492   1_556     S
V18     V74    10.492   .     S
V19     V49    10.933   1_565     S
V19     V50    10.933   1_565     S
V19     V84    10.933   .     S
V19     V83    10.933   .     S
V19     V95    11.2   1_455     S
V19     V91    11.2   .     S
V19     V59    11.2   .     S
V19     V57    11.2   1_565     S
V19     V65    9.12   1_565     S
V19     Er33    9.067   1_565     S
V19     Er41    9.067   1_565     S
V19     V76    10.492   .     S
V19     V75    10.492   .     S
V20     V50    10.933   1_565     S
V20     V49    10.933   1_566     S
V20     V83    10.933   1_556     S
V20     V84    10.933   .     S
V20     V96    11.2   1_455     S
V20     V92    11.2   .     S
V20     V60    11.2   .     S
V20     V58    11.2   1_565     S
V20     V66    9.12   1_565     S
V20     Er34    9.067   1_565     S
V20     Er42    9.067   1_565     S
V20     V75    10.492   1_556     S
V20     V76    10.492   .     S
V21     V55    10.933   .     S
V21     V56    10.933   .     S
V21     V86    10.933   .     S
V21     V85    10.933   .     S
V21     V89    11.2   .     S
V21     V93    11.2   .     S
V21     V61    11.2   .     S
V21     V63    11.2   .     S
V21     V71    9.12   .     S
V21     Er39    9.067   .     S
V21     Er47    9.067   .     S
V21     V78    10.492   .     S
V21     V77    10.492   .     S
V22     V56    10.933   .     S
V22     V55    10.933   1_556     S
V22     V85    10.933   1_556     S
V22     V86    10.933   .     S
V22     V90    11.2   .     S
V22     V94    11.2   .     S
V22     V62    11.2   .     S
V22     V64    11.2   .     S
V22     V72    9.12   .     S
V22     Er40    9.067   .     S
V22     Er48    9.067   .     S
V22     V77    10.492   1_556     S
V22     V78    10.492   .     S
V23     V53    10.933   1_565     S
V23     V54    10.933   1_565     S
V23     V88    10.933   .     S
V23     V87    10.933   .     S
V23     V91    11.2   .     S
V23     V95    11.2   .     S
V23     V63    11.2   .     S
V23     V61    11.2   1_565     S
V23     V69    9.12   1_565     S
V23     Er37    9.067   1_565     S
V23     Er45    9.067   1_565     S
V23     V80    10.492   .     S
V23     V79    10.492   .     S
V24     V54    10.933   1_565     S
V24     V53    10.933   1_566     S
V24     V87    10.933   1_556     S
V24     V88    10.933   .     S
V24     V92    11.2   .     S
V24     V96    11.2   .     S
V24     V64    11.2   .     S
V24     V62    11.2   1_565     S
V24     V70    9.12   1_565     S
V24     Er38    9.067   1_565     S
V24     Er46    9.067   1_565     S
V24     V79    10.492   1_556     S
V24     V80    10.492   .     S
V25     V61    10.933   .     S
V25     V62    10.933   1_554     S
V25     V90    10.933   1_554     S
V25     V89    10.933   .     S
V25     V83    11.2   1_545     S
V25     V81    11.2   .     S
V25     V49    11.2   .     S
V25     V53    11.2   .     S
V25     V77    9.12   .     S
V25     Er2    9.067   1_554     S
V25     Er37    9.067   .     S
V25     Er46    9.067   1_554     S
V25     V66    10.492   1_554     S
V25     V65    10.492   .     S
V26     V62    10.933   .     S
V26     V61    10.933   .     S
V26     V89    10.933   .     S
V26     V90    10.933   .     S
V26     V84    11.2   1_545     S
V26     V82    11.2   .     S
V26     V50    11.2   .     S
V26     V54    11.2   .     S
V26     V78    9.12   .     S
V26     Er38    9.067   .     S
V26     Er45    9.067   .     S
V26     V65    10.492   .     S
V26     V66    10.492   .     S
V27     V63    10.933   .     S
V27     V64    10.933   1_554     S
V27     V92    10.933   1_554     S
V27     V91    10.933   .     S
V27     V81    11.2   .     S
V27     V83    11.2   .     S
V27     V51    11.2   .     S
V27     V55    11.2   .     S
V27     V79    9.12   .     S
V27     Er4    9.067   1_554     S
V27     Er39    9.067   .     S
V27     Er48    9.067   1_554     S
V27     V68    10.492   1_554     S
V27     V67    10.492   .     S
V28     V64    10.933   .     S
V28     V63    10.933   .     S
V28     V91    10.933   .     S
V28     V92    10.933   .     S
V28     V82    11.2   .     S
V28     V84    11.2   .     S
V28     V52    11.2   .     S
V28     V56    11.2   .     S
V28     V80    9.12   .     S
V28     Er40    9.067   .     S
V28     Er47    9.067   .     S
V28     V67    10.492   .     S
V28     V68    10.492   .     S
V29     V57    10.933   1_655     S
V29     V58    10.933   1_654     S
V29     V94    10.933   1_554     S
V29     V93    10.933   .     S
V29     V87    11.2   1_545     S
V29     V85    11.2   .     S
V29     V53    11.2   .     S
V29     V49    11.2   1_655     S
V29     V73    9.12   1_655     S
V29     Er6    9.067   1_554     S
V29     Er33    9.067   1_655     S
V29     Er42    9.067   1_654     S
V29     V70    10.492   1_554     S
V29     V69    10.492   .     S
V30     V58    10.933   1_655     S
V30     V57    10.933   1_655     S
V30     V93    10.933   .     S
V30     V94    10.933   .     S
V30     V88    11.2   1_545     S
V30     V86    11.2   .     S
V30     V54    11.2   .     S
V30     V50    11.2   1_655     S
V30     V74    9.12   1_655     S
V30     Er34    9.067   1_655     S
V30     Er41    9.067   1_655     S
V30     V69    10.492   .     S
V30     V70    10.492   .     S
V31     V59    10.933   1_655     S
V31     V60    10.933   1_654     S
V31     V96    10.933   1_554     S
V31     V95    10.933   .     S
V31     V85    11.2   .     S
V31     V87    11.2   .     S
V31     V55    11.2   .     S
V31     V51    11.2   1_655     S
V31     V75    9.12   1_655     S
V31     Er8    9.067   1_554     S
V31     Er35    9.067   1_655     S
V31     Er44    9.067   1_654     S
V31     V72    10.492   1_554     S
V31     V71    10.492   .     S
V32     V60    10.933   1_655     S
V32     V59    10.933   1_655     S
V32     V95    10.933   .     S
V32     V96    10.933   .     S
V32     V86    11.2   .     S
V32     V88    11.2   .     S
V32     V56    11.2   .     S
V32     V52    11.2   1_655     S
V32     V76    9.12   1_655     S
V32     Er36    9.067   1_655     S
V32     Er43    9.067   1_655     S
V32     V71    10.492   .     S
V32     V72    10.492   .     S
Er33     Er42    8.828   1_554     S
Er33     Er41    8.828   .     S
Er33     V19    9.067   1_545     S
Er33     V29    9.067   1_455     S
Er33     V57    9.067   .     S
Er33     V95    9.067   1_445     S
Er33     V69    9.067   1_455     S
Er33     V75    9.067   1_545     S
Er33     V87    9.067   1_445     S
Er33     V49    9.067   .     S
Er34     Er41    8.828   .     S
Er34     Er42    8.828   .     S
Er34     V20    9.067   1_545     S
Er34     V30    9.067   1_455     S
Er34     V58    9.067   .     S
Er34     V96    9.067   1_445     S
Er34     V70    9.067   1_455     S
Er34     V76    9.067   1_545     S
Er34     V88    9.067   1_445     S
Er34     V50    9.067   .     S
Er35     Er44    8.828   1_554     S
Er35     Er43    8.828   .     S
Er35     V31    9.067   1_455     S
Er35     V59    9.067   .     S
Er35     V93    9.067   1_455     S
Er35     V71    9.067   1_455     S
Er35     V73    9.067   .     S
Er35     V85    9.067   1_455     S
Er35     V51    9.067   .     S
Er36     Er43    8.828   .     S
Er36     Er44    8.828   .     S
Er36     V32    9.067   1_455     S
Er36     V60    9.067   .     S
Er36     V94    9.067   1_455     S
Er36     V72    9.067   1_455     S
Er36     V74    9.067   .     S
Er36     V86    9.067   1_455     S
Er36     V52    9.067   .     S
Er37     Er46    8.828   1_554     S
Er37     Er45    8.828   .     S
Er37     V23    9.067   1_545     S
Er37     V61    9.067   .     S
Er37     V91    9.067   1_545     S
Er37     V65    9.067   .     S
Er37     V79    9.067   1_545     S
Er37     V83    9.067   1_545     S
Er37     V53    9.067   .     S
Er38     Er45    8.828   .     S
Er38     Er46    8.828   .     S
Er38     V24    9.067   1_545     S
Er38     V62    9.067   .     S
Er38     V92    9.067   1_545     S
Er38     V66    9.067   .     S
Er38     V80    9.067   1_545     S
Er38     V84    9.067   1_545     S
Er38     V54    9.067   .     S
Er39     Er48    8.828   1_554     S
Er39     Er47    8.828   .     S
Er39     V63    9.067   .     S
Er39     V89    9.067   .     S
Er39     V67    9.067   .     S
Er39     V77    9.067   .     S
Er39     V81    9.067   .     S
Er39     V55    9.067   .     S
Er40     Er47    8.828   .     S
Er40     Er48    8.828   .     S
Er40     V64    9.067   .     S
Er40     V90    9.067   .     S
Er40     V68    9.067   .     S
Er40     V78    9.067   .     S
Er40     V82    9.067   .     S
Er40     V56    9.067   .     S
Er41     V19    9.067   1_545     S
Er41     V30    9.067   1_455     S
Er41     V57    9.067   .     S
Er41     V95    9.067   1_445     S
Er41     V69    9.067   1_455     S
Er41     V76    9.067   1_545     S
Er41     V88    9.067   1_445     S
Er41     V50    9.067   .     S
Er42     Er33    8.828   1_556     S
Er42     V20    9.067   1_545     S
Er42     V29    9.067   1_456     S
Er42     V58    9.067   .     S
Er42     V96    9.067   1_445     S
Er42     V70    9.067   1_455     S
Er42     V75    9.067   1_546     S
Er42     V87    9.067   1_446     S
Er42     V49    9.067   1_556     S
Er43     V32    9.067   1_455     S
Er43     V59    9.067   .     S
Er43     V93    9.067   1_455     S
Er43     V71    9.067   1_455     S
Er43     V74    9.067   .     S
Er43     V86    9.067   1_455     S
Er43     V52    9.067   .     S
Er44     Er35    8.828   1_556     S
Er44     V31    9.067   1_456     S
Er44     V60    9.067   .     S
Er44     V94    9.067   1_455     S
Er44     V72    9.067   1_455     S
Er44     V73    9.067   1_556     S
Er44     V85    9.067   1_456     S
Er44     V51    9.067   1_556     S
Er45     V23    9.067   1_545     S
Er45     V61    9.067   .     S
Er45     V91    9.067   1_545     S
Er45     V65    9.067   .     S
Er45     V80    9.067   1_545     S
Er45     V84    9.067   1_545     S
Er45     V54    9.067   .     S
Er46     Er37    8.828   1_556     S
Er46     V24    9.067   1_545     S
Er46     V25    9.067   1_556     S
Er46     V62    9.067   .     S
Er46     V92    9.067   1_545     S
Er46     V66    9.067   .     S
Er46     V79    9.067   1_546     S
Er46     V83    9.067   1_546     S
Er46     V53    9.067   1_556     S
Er47     V63    9.067   .     S
Er47     V89    9.067   .     S
Er47     V67    9.067   .     S
Er47     V78    9.067   .     S
Er47     V82    9.067   .     S
Er47     V56    9.067   .     S
Er48     Er39    8.828   1_556     S
Er48     V27    9.067   1_556     S
Er48     V64    9.067   .     S
Er48     V90    9.067   .     S
Er48     V68    9.067   .     S
Er48     V77    9.067   1_556     S
Er48     V81    9.067   1_556     S
Er48     V55    9.067   1_556     S
V49     V19    10.933   1_545     S
V49     V20    10.933   1_544     S
V49     V66    10.933   1_554     S
V49     V65    10.933   .     S
V49     V75    11.2   1_545     S
V49     V29    11.2   1_455     S
V49     V73    11.2   .     S
V49     V83    9.12   1_545     S
V49     Er2    9.067   1_554     S
V49     Er42    9.067   1_554     S
V49     V58    10.492   1_554     S
V49     V57    10.492   .     S
V50     V20    10.933   1_545     S
V50     V19    10.933   1_545     S
V50     V65    10.933   .     S
V50     V66    10.933   .     S
V50     V76    11.2   1_545     S
V50     V30    11.2   1_455     S
V50     V74    11.2   .     S
V50     V84    9.12   1_545     S
V50     V57    10.492   .     S
V50     V58    10.492   .     S
V51     V18    10.933   1_554     S
V51     V68    10.933   1_554     S
V51     V67    10.933   .     S
V51     V73    11.2   .     S
V51     V31    11.2   1_455     S
V51     V75    11.2   .     S
V51     V81    9.12   .     S
V51     Er4    9.067   1_554     S
V51     Er44    9.067   1_554     S
V51     V60    10.492   1_554     S
V51     V59    10.492   .     S
V52     V67    10.933   .     S
V52     V68    10.933   .     S
V52     V74    11.2   .     S
V52     V32    11.2   1_455     S
V52     V76    11.2   .     S
V52     V82    9.12   .     S
V52     V59    10.492   .     S
V52     V60    10.492   .     S
V53     V23    10.933   1_545     S
V53     V24    10.933   1_544     S
V53     V70    10.933   1_554     S
V53     V69    10.933   .     S
V53     V79    11.2   1_545     S
V53     V77    11.2   .     S
V53     V87    9.12   1_545     S
V53     Er6    9.067   1_554     S
V53     Er46    9.067   1_554     S
V53     V62    10.492   1_554     S
V53     V61    10.492   .     S
V54     V24    10.933   1_545     S
V54     V23    10.933   1_545     S
V54     V69    10.933   .     S
V54     V70    10.933   .     S
V54     V80    11.2   1_545     S
V54     V78    11.2   .     S
V54     V88    9.12   1_545     S
V54     V61    10.492   .     S
V54     V62    10.492   .     S
V55     V22    10.933   1_554     S
V55     V72    10.933   1_554     S
V55     V71    10.933   .     S
V55     V77    11.2   .     S
V55     V79    11.2   .     S
V55     V85    9.12   .     S
V55     Er8    9.067   1_554     S
V55     Er48    9.067   1_554     S
V55     V64    10.492   1_554     S
V55     V63    10.492   .     S
V56     V71    10.933   .     S
V56     V72    10.933   .     S
V56     V78    11.2   .     S
V56     V80    11.2   .     S
V56     V86    9.12   .     S
V56     V63    10.492   .     S
V56     V64    10.492   .     S
V57     V29    10.933   1_455     S
V57     V30    10.933   1_455     S
V57     V74    10.933   .     S
V57     V73    10.933   .     S
V57     V69    11.2   1_455     S
V57     V19    11.2   1_545     S
V57     V65    11.2   .     S
V57     V93    9.12   1_455     S
V58     V30    10.933   1_455     S
V58     V29    10.933   1_456     S
V58     V73    10.933   1_556     S
V58     V74    10.933   .     S
V58     V70    11.2   1_455     S
V58     V20    11.2   1_545     S
V58     V66    11.2   .     S
V58     V94    9.12   1_455     S
V58     V49    10.492   1_556     S
V59     V31    10.933   1_455     S
V59     V32    10.933   1_455     S
V59     V76    10.933   .     S
V59     V75    10.933   .     S
V59     V71    11.2   1_455     S
V59     V67    11.2   .     S
V59     V95    9.12   1_455     S
V60     V32    10.933   1_455     S
V60     V31    10.933   1_456     S
V60     V75    10.933   1_556     S
V60     V76    10.933   .     S
V60     V72    11.2   1_455     S
V60     V68    11.2   .     S
V60     V96    9.12   1_455     S
V60     V51    10.492   1_556     S
V61     V78    10.933   .     S
V61     V77    10.933   .     S
V61     V65    11.2   .     S
V61     V23    11.2   1_545     S
V61     V69    11.2   .     S
V61     V89    9.12   .     S
V62     V25    10.933   1_556     S
V62     V77    10.933   1_556     S
V62     V78    10.933   .     S
V62     V66    11.2   .     S
V62     V24    11.2   1_545     S
V62     V70    11.2   .     S
V62     V90    9.12   .     S
V62     V53    10.492   1_556     S
V63     V80    10.933   .     S
V63     V79    10.933   .     S
V63     V67    11.2   .     S
V63     V71    11.2   .     S
V63     V91    9.12   .     S
V64     V27    10.933   1_556     S
V64     V79    10.933   1_556     S
V64     V80    10.933   .     S
V64     V68    11.2   .     S
V64     V72    11.2   .     S
V64     V92    9.12   .     S
V64     V55    10.492   1_556     S
V65     V84    10.933   1_545     S
V65     V83    10.933   1_545     S
V65     V91    11.2   1_545     S
V65     V89    11.2   .     S
V65     V19    9.12   1_545     S
V66     V49    10.933   1_556     S
V66     V83    10.933   1_546     S
V66     V84    10.933   1_545     S
V66     V92    11.2   1_545     S
V66     V90    11.2   .     S
V66     V20    9.12   1_545     S
V66     V25    10.492   1_556     S
V67     V82    10.933   .     S
V67     V81    10.933   .     S
V67     V89    11.2   .     S
V67     V91    11.2   .     S
V68     V51    10.933   1_556     S
V68     V81    10.933   1_556     S
V68     V82    10.933   .     S
V68     V90    11.2   .     S
V68     V92    11.2   .     S
V68     V27    10.492   1_556     S
V69     V88    10.933   1_545     S
V69     V87    10.933   1_545     S
V69     V95    11.2   1_545     S
V69     V57    11.2   1_655     S
V69     V93    11.2   .     S
V69     V23    9.12   1_545     S
V69     Er33    9.067   1_655     S
V69     Er41    9.067   1_655     S
V70     V53    10.933   1_556     S
V70     V87    10.933   1_546     S
V70     V88    10.933   1_545     S
V70     V96    11.2   1_545     S
V70     V58    11.2   1_655     S
V70     V94    11.2   .     S
V70     V24    9.12   1_545     S
V70     Er34    9.067   1_655     S
V70     Er42    9.067   1_655     S
V70     V29    10.492   1_556     S
V71     V86    10.933   .     S
V71     V85    10.933   .     S
V71     V93    11.2   .     S
V71     V59    11.2   1_655     S
V71     V95    11.2   .     S
V71     Er35    9.067   1_655     S
V71     Er43    9.067   1_655     S
V72     V55    10.933   1_556     S
V72     V85    10.933   1_556     S
V72     V86    10.933   .     S
V72     V94    11.2   .     S
V72     V60    11.2   1_655     S
V72     V96    11.2   .     S
V72     Er36    9.067   1_655     S
V72     Er44    9.067   1_655     S
V72     V31    10.492   1_556     S
V73     V58    10.933   1_554     S
V73     V94    10.933   1_454     S
V73     V93    10.933   1_455     S
V73     V85    11.2   1_455     S
V73     V81    11.2   .     S
V73     V29    9.12   1_455     S
V73     Er2    9.067   1_554     S
V73     Er44    9.067   1_554     S
V73     V18    10.492   1_554     S
V74     V93    10.933   1_455     S
V74     V94    10.933   1_455     S
V74     V86    11.2   1_455     S
V74     V82    11.2   .     S
V74     V30    9.12   1_455     S
V75     V60    10.933   1_554     S
V75     V96    10.933   1_454     S
V75     V95    10.933   1_455     S
V75     V87    11.2   1_455     S
V75     V49    11.2   1_565     S
V75     V83    11.2   .     S
V75     V31    9.12   1_455     S
V75     Er4    9.067   1_554     S
V75     Er33    9.067   1_565     S
V75     Er42    9.067   1_564     S
V75     V20    10.492   1_554     S
V76     V95    10.933   1_455     S
V76     V96    10.933   1_455     S
V76     V88    11.2   1_455     S
V76     V50    11.2   1_565     S
V76     V84    11.2   .     S
V76     V32    9.12   1_455     S
V76     Er34    9.067   1_565     S
V76     Er41    9.067   1_565     S
V77     V62    10.933   1_554     S
V77     V90    10.933   1_554     S
V77     V89    10.933   .     S
V77     V81    11.2   .     S
V77     V85    11.2   .     S
V77     Er6    9.067   1_554     S
V77     Er48    9.067   1_554     S
V77     V22    10.492   1_554     S
V78     V89    10.933   .     S
V78     V90    10.933   .     S
V78     V82    11.2   .     S
V78     V86    11.2   .     S
V79     V64    10.933   1_554     S
V79     V92    10.933   1_554     S
V79     V91    10.933   .     S
V79     V83    11.2   .     S
V79     V53    11.2   1_565     S
V79     V87    11.2   .     S
V79     Er8    9.067   1_554     S
V79     Er37    9.067   1_565     S
V79     Er46    9.067   1_564     S
V79     V24    10.492   1_554     S
V80     V91    10.933   .     S
V80     V92    10.933   .     S
V80     V84    11.2   .     S
V80     V54    11.2   1_565     S
V80     V88    11.2   .     S
V80     Er38    9.067   1_565     S
V80     Er45    9.067   1_565     S
V81     V68    10.933   1_554     S
V81     V18    10.933   1_554     S
V81     Er2    9.067   1_554     S
V81     Er48    9.067   1_554     S
V81     V89    10.492   .     S
V81     V90    10.492   1_554     S
V82     V90    10.492   .     S
V82     V89    10.492   .     S
V83     V66    10.933   1_564     S
V83     V20    10.933   1_554     S
V83     V65    10.933   1_565     S
V83     V25    11.2   1_565     S
V83     V49    9.12   1_565     S
V83     Er4    9.067   1_554     S
V83     Er37    9.067   1_565     S
V83     Er46    9.067   1_564     S
V83     V91    10.492   .     S
V83     V92    10.492   1_554     S
V84     V65    10.933   1_565     S
V84     V66    10.933   1_565     S
V84     V26    11.2   1_565     S
V84     V50    9.12   1_565     S
V84     Er38    9.067   1_565     S
V84     Er45    9.067   1_565     S
V84     V92    10.492   .     S
V84     V91    10.492   .     S
V85     V72    10.933   1_554     S
V85     V22    10.933   1_554     S
V85     V73    11.2   1_655     S
V85     Er6    9.067   1_554     S
V85     Er35    9.067   1_655     S
V85     Er44    9.067   1_654     S
V85     V93    10.492   .     S
V85     V94    10.492   1_554     S
V86     V74    11.2   1_655     S
V86     Er36    9.067   1_655     S
V86     Er43    9.067   1_655     S
V86     V94    10.492   .     S
V86     V93    10.492   .     S
V87     V70    10.933   1_564     S
V87     V24    10.933   1_554     S
V87     V69    10.933   1_565     S
V87     V29    11.2   1_565     S
V87     V75    11.2   1_655     S
V87     V53    9.12   1_565     S
V87     Er8    9.067   1_554     S
V87     Er33    9.067   1_665     S
V87     Er42    9.067   1_664     S
V87     V95    10.492   .     S
V87     V96    10.492   1_554     S
V88     V69    10.933   1_565     S
V88     V70    10.933   1_565     S
V88     V30    11.2   1_565     S
V88     V76    11.2   1_655     S
V88     V54    9.12   1_565     S
V88     Er34    9.067   1_665     S
V88     Er41    9.067   1_665     S
V88     V96    10.492   .     S
V88     V95    10.492   .     S
V90     V77    10.933   1_556     S
V90     V25    10.933   1_556     S
V90     V81    10.492   1_556     S
V91     V65    11.2   1_565     S
V91     Er37    9.067   1_565     S
V91     Er45    9.067   1_565     S
V92     V79    10.933   1_556     S
V92     V27    10.933   1_556     S
V92     V66    11.2   1_565     S
V92     Er38    9.067   1_565     S
V92     Er46    9.067   1_565     S
V92     V83    10.492   1_556     S
V93     V74    10.933   1_655     S
V93     V73    10.933   1_655     S
V93     V17    11.2   1_655     S
V93     V57    9.12   1_655     S
V93     Er35    9.067   1_655     S
V93     Er43    9.067   1_655     S
V94     V73    10.933   1_656     S
V94     V29    10.933   1_556     S
V94     V74    10.933   1_655     S
V94     V18    11.2   1_655     S
V94     V58    9.12   1_655     S
V94     Er36    9.067   1_655     S
V94     Er44    9.067   1_655     S
V94     V85    10.492   1_556     S
V95     V76    10.933   1_655     S
V95     V75    10.933   1_655     S
V95     V19    11.2   1_655     S
V95     V69    11.2   1_565     S
V95     V59    9.12   1_655     S
V95     Er33    9.067   1_665     S
V95     Er41    9.067   1_665     S
V96     V75    10.933   1_656     S
V96     V31    10.933   1_556     S
V96     V76    10.933   1_655     S
V96     V20    11.2   1_655     S
V96     V70    11.2   1_565     S
V96     V60    9.12   1_655     S
V96     Er34    9.067   1_665     S
V96     Er42    9.067   1_665     S
V96     V87    10.492   1_556     S
