data_can-e
_audit_creation_date              2019-12-31
_audit_creation_method            'Pymatgen'
_symmetry_space_group_name_H-M    'P1'
_symmetry_Int_Tables_number       1
loop_
_symmetry_equiv_pos_as_xyz
  x,y,z
_cell_length_a                    47.7472
_cell_length_b                    47.7472
_cell_length_c                    39.9998
_cell_angle_alpha                 90.0
_cell_angle_beta                 90.0
_cell_angle_gamma                 120.0
loop_
_atom_site_label
_atom_site_type_symbol
_atom_site_fract_x
_atom_site_fract_y
_atom_site_fract_z
V1     V     0.4424   0.8847   0.125
V2     V     0.4424   0.8847   0.625
Ti3     Ti     0.3486   0.0   0.0
Ti4     Ti     0.3486   0.0   0.5
Ti5     Ti     0.3486   0.0   0.25
Ti6     Ti     0.3486   0.0   0.75
Er7     Er     0.2033   0.7967   0.125
Er8     Er     0.2033   0.7967   0.625
Er9     Er     0.4066   0.2033   0.375
Er10     Er     0.4066   0.2033   0.875
V11     V     0.1153   0.5576   0.125
V12     V     0.1153   0.5576   0.625
Ti13     Ti     1.0   0.3486   0.0
Ti14     Ti     1.0   0.3486   0.5
Ti15     Ti     1.0   0.3486   0.25
Ti16     Ti     1.0   0.3486   0.75
V17     V     0.5576   0.1153   0.375
V18     V     0.5576   0.1153   0.875
Ti19     Ti     0.6514   0.0   0.25
Ti20     Ti     0.6514   0.0   0.75
Ti21     Ti     0.6514   0.0   0.0
Ti22     Ti     0.6514   0.0   0.5
Er23     Er     0.7967   0.2033   0.375
Er24     Er     0.7967   0.2033   0.875
V25     V     0.8847   0.4424   0.375
V26     V     0.8847   0.4424   0.875
Ti27     Ti     0.0   0.6514   0.25
Ti28     Ti     0.0   0.6514   0.75
Ti29     Ti     0.0   0.6514   0.0
Ti30     Ti     0.0   0.6514   0.5
V31     V     0.5576   0.4424   0.375
V32     V     0.5576   0.4424   0.875
Ti33     Ti     0.3486   0.3486   0.25
Ti34     Ti     0.3486   0.3486   0.75
Ti35     Ti     0.3486   0.3486   0.0
Ti36     Ti     0.3486   0.3486   0.5
V37     V     0.4424   0.5576   0.125
V38     V     0.4424   0.5576   0.625
Ti39     Ti     0.6514   0.6514   0.0
Ti40     Ti     0.6514   0.6514   0.5
Ti41     Ti     0.6514   0.6514   0.25
Ti42     Ti     0.6514   0.6514   0.75
Er43     Er     0.2033   0.4066   0.125
Er44     Er     0.2033   0.4066   0.625
Er45     Er     0.5934   0.7967   0.125
Er46     Er     0.5934   0.7967   0.625
Er47     Er     0.7967   0.5934   0.375
Er48     Er     0.7967   0.5934   0.875
loop_
_geom_bond_atom_site_label_1
_geom_bond_atom_site_label_2
_geom_bond_distance
_geom_bond_site_symmetry_2
_ccdc_geom_bond_type
V1     Er7    10.0   .     S
V1     Ti3    10.0   1_565     S
V1     Ti5    10.0   1_565     S
V1     Ti19    10.0   1_565     S
V1     Ti21    10.0   1_565     S
V1     Er45    10.0   .     S
V2     Er8    10.0   .     S
V2     Ti4    10.0   1_565     S
V2     Ti6    10.0   1_565     S
V2     Ti20    10.0   1_565     S
V2     Ti22    10.0   1_565     S
V2     Er46    10.0   .     S
Ti3     V18    10.0   1_554     S
Ti3     Er7    10.0   1_545     S
Ti3     V1    10.0   1_545     S
Ti3     Er10    10.0   1_554     S
Ti3     Ti6    10.0   1_554     S
Ti3     Ti5    10.0   .     S
Ti4     V17    10.0   .     S
Ti4     Er8    10.0   1_545     S
Ti4     V2    10.0   1_545     S
Ti4     Er9    10.0   .     S
Ti4     Ti5    10.0   .     S
Ti4     Ti6    10.0   .     S
Ti5     V17    10.0   .     S
Ti5     Er7    10.0   1_545     S
Ti5     V1    10.0   1_545     S
Ti5     Er9    10.0   .     S
Ti6     V18    10.0   .     S
Ti6     Er8    10.0   1_545     S
Ti6     V2    10.0   1_545     S
Ti6     Er10    10.0   .     S
Ti6     Ti3    10.0   1_556     S
Er7     Ti3    10.0   1_565     S
Er7     Ti5    10.0   1_565     S
Er7     V11    10.0   .     S
Er7     Ti29    10.0   .     S
Er7     Ti27    10.0   .     S
Er8     Ti4    10.0   1_565     S
Er8     Ti6    10.0   1_565     S
Er8     V12    10.0   .     S
Er8     Ti30    10.0   .     S
Er8     Ti28    10.0   .     S
Er9     V17    10.0   .     S
Er9     V31    10.0   .     S
Er9     Ti36    10.0   .     S
Er9     Ti33    10.0   .     S
Er10     V18    10.0   .     S
Er10     Ti3    10.0   1_556     S
Er10     V32    10.0   .     S
Er10     Ti35    10.0   1_556     S
Er10     Ti34    10.0   .     S
V11     Er43    10.0   .     S
V11     Ti13    10.0   1_455     S
V11     Ti15    10.0   1_455     S
V11     Ti27    10.0   .     S
V11     Ti29    10.0   .     S
V12     Er44    10.0   .     S
V12     Ti14    10.0   1_455     S
V12     Ti16    10.0   1_455     S
V12     Ti28    10.0   .     S
V12     Ti30    10.0   .     S
Ti13     V26    10.0   1_554     S
Ti13     Er43    10.0   1_655     S
Ti13     V11    10.0   1_655     S
Ti13     Er24    10.0   1_554     S
Ti13     Ti16    10.0   1_554     S
Ti13     Ti15    10.0   .     S
Ti14     V25    10.0   .     S
Ti14     Er44    10.0   1_655     S
Ti14     V12    10.0   1_655     S
Ti14     Er23    10.0   .     S
Ti14     Ti15    10.0   .     S
Ti14     Ti16    10.0   .     S
Ti15     V25    10.0   .     S
Ti15     Er43    10.0   1_655     S
Ti15     V11    10.0   1_655     S
Ti15     Er23    10.0   .     S
Ti16     V26    10.0   .     S
Ti16     Er44    10.0   1_655     S
Ti16     V12    10.0   1_655     S
Ti16     Er24    10.0   .     S
Ti16     Ti13    10.0   1_556     S
V17     Er23    10.0   .     S
V17     Ti22    10.0   .     S
V17     Ti19    10.0   .     S
V18     Ti3    10.0   1_556     S
V18     Er24    10.0   .     S
V18     Ti21    10.0   1_556     S
V18     Ti20    10.0   .     S
Ti19     V1    10.0   1_545     S
Ti19     Er23    10.0   .     S
Ti19     Er45    10.0   1_545     S
Ti19     Ti21    10.0   .     S
Ti19     Ti22    10.0   .     S
Ti20     V2    10.0   1_545     S
Ti20     Er24    10.0   .     S
Ti20     Er46    10.0   1_545     S
Ti20     Ti22    10.0   .     S
Ti20     Ti21    10.0   1_556     S
Ti21     V1    10.0   1_545     S
Ti21     Er24    10.0   1_554     S
Ti21     V18    10.0   1_554     S
Ti21     Er45    10.0   1_545     S
Ti21     Ti20    10.0   1_554     S
Ti22     V2    10.0   1_545     S
Ti22     Er23    10.0   .     S
Ti22     Er46    10.0   1_545     S
Er23     V25    10.0   .     S
Er24     V26    10.0   .     S
Er24     Ti13    10.0   1_556     S
Er24     Ti21    10.0   1_556     S
V25     Er47    10.0   .     S
V25     Ti27    10.0   1_655     S
V25     Ti30    10.0   1_655     S
V26     Ti13    10.0   1_556     S
V26     Er48    10.0   .     S
V26     Ti28    10.0   1_655     S
V26     Ti29    10.0   1_656     S
Ti27     Er47    10.0   1_455     S
Ti27     V25    10.0   1_455     S
Ti27     Ti30    10.0   .     S
Ti27     Ti29    10.0   .     S
Ti28     Er48    10.0   1_455     S
Ti28     V26    10.0   1_455     S
Ti28     Ti29    10.0   1_556     S
Ti28     Ti30    10.0   .     S
Ti29     Er48    10.0   1_454     S
Ti29     V26    10.0   1_454     S
Ti29     Ti28    10.0   1_554     S
Ti30     Er47    10.0   1_455     S
Ti30     V25    10.0   1_455     S
V31     Er47    10.0   .     S
V31     Ti40    10.0   .     S
V31     Ti41    10.0   .     S
V31     Ti36    10.0   .     S
V31     Ti33    10.0   .     S
V32     Er48    10.0   .     S
V32     Ti39    10.0   1_556     S
V32     Ti42    10.0   .     S
V32     Ti35    10.0   1_556     S
V32     Ti34    10.0   .     S
Ti33     Ti36    10.0   .     S
Ti33     Er43    10.0   .     S
Ti33     V37    10.0   .     S
Ti33     Ti35    10.0   .     S
Ti34     Ti35    10.0   1_556     S
Ti34     Er44    10.0   .     S
Ti34     V38    10.0   .     S
Ti34     Ti36    10.0   .     S
Ti35     Er10    10.0   1_554     S
Ti35     V32    10.0   1_554     S
Ti35     Ti34    10.0   1_554     S
Ti35     Er43    10.0   .     S
Ti35     V37    10.0   .     S
Ti36     Er44    10.0   .     S
Ti36     V38    10.0   .     S
V37     Er45    10.0   .     S
V37     Er43    10.0   .     S
V37     Ti39    10.0   .     S
V37     Ti41    10.0   .     S
V38     Er46    10.0   .     S
V38     Er44    10.0   .     S
V38     Ti40    10.0   .     S
V38     Ti42    10.0   .     S
Ti39     Er48    10.0   1_554     S
Ti39     V32    10.0   1_554     S
Ti39     Er45    10.0   .     S
Ti39     Ti41    10.0   .     S
Ti39     Ti42    10.0   1_554     S
Ti40     Er47    10.0   .     S
Ti40     Er46    10.0   .     S
Ti40     Ti42    10.0   .     S
Ti40     Ti41    10.0   .     S
Ti41     Er47    10.0   .     S
Ti41     Er45    10.0   .     S
Ti42     Er48    10.0   .     S
Ti42     Er46    10.0   .     S
Ti42     Ti39    10.0   1_556     S
Er43     Ti13    10.0   1_455     S
Er43     Ti15    10.0   1_455     S
Er44     Ti14    10.0   1_455     S
Er44     Ti16    10.0   1_455     S
Er45     Ti21    10.0   1_565     S
Er45     Ti19    10.0   1_565     S
Er46     Ti22    10.0   1_565     S
Er46     Ti20    10.0   1_565     S
Er47     Ti30    10.0   1_655     S
Er47     Ti27    10.0   1_655     S
Er48     Ti29    10.0   1_656     S
Er48     Ti28    10.0   1_655     S
Er48     Ti39    10.0   1_556     S
