data_can
_audit_creation_date              2019-12-31
_audit_creation_method            'Pymatgen'
_symmetry_space_group_name_H-M    'P1'
_symmetry_Int_Tables_number       1
loop_
_symmetry_equiv_pos_as_xyz
  x,y,z
_cell_length_a                    39.9969
_cell_length_b                    39.9969
_cell_length_c                    32.665
_cell_angle_alpha                 90.0
_cell_angle_beta                 90.0
_cell_angle_gamma                 120.0
loop_
_atom_site_label
_atom_site_type_symbol
_atom_site_fract_x
_atom_site_fract_y
_atom_site_fract_z
V1     V     0.4166   0.3333   0.375
V2     V     0.4166   0.3333   0.875
V3     V     0.6667   0.5834   0.375
V4     V     0.6667   0.5834   0.875
V5     V     0.3333   0.4166   0.125
V6     V     0.3333   0.4166   0.625
V7     V     0.5834   0.6667   0.125
V8     V     0.5834   0.6667   0.625
V9     V     0.0833   0.4166   0.125
V10     V     0.0833   0.4166   0.625
V11     V     0.0833   0.6667   0.125
V12     V     0.0833   0.6667   0.625
V13     V     0.9167   0.3333   0.375
V14     V     0.9167   0.3333   0.875
V15     V     0.9167   0.5834   0.375
V16     V     0.9167   0.5834   0.875
V17     V     0.6667   0.0833   0.375
V18     V     0.6667   0.0833   0.875
V19     V     0.4166   0.0833   0.375
V20     V     0.4166   0.0833   0.875
V21     V     0.3333   0.9167   0.125
V22     V     0.3333   0.9167   0.625
V23     V     0.5834   0.9167   0.125
V24     V     0.5834   0.9167   0.625
loop_
_geom_bond_atom_site_label_1
_geom_bond_atom_site_label_2
_geom_bond_distance
_geom_bond_site_symmetry_2
_ccdc_geom_bond_type
V1     V3    10.0   .     S
V1     V6    10.0   .     S
V1     V5    10.0   .     S
V1     V19    10.0   .     S
V2     V4    10.0   .     S
V2     V5    10.0   1_556     S
V2     V6    10.0   .     S
V2     V20    10.0   .     S
V3     V8    10.0   .     S
V3     V7    10.0   .     S
V3     V15    10.0   .     S
V4     V7    10.0   1_556     S
V4     V8    10.0   .     S
V4     V16    10.0   .     S
V5     V2    10.0   1_554     S
V5     V7    10.0   .     S
V5     V9    10.0   .     S
V6     V8    10.0   .     S
V6     V10    10.0   .     S
V7     V4    10.0   1_554     S
V7     V23    10.0   .     S
V8     V24    10.0   .     S
V9     V11    10.0   .     S
V9     V14    10.0   1_454     S
V9     V13    10.0   1_455     S
V10     V12    10.0   .     S
V10     V13    10.0   1_455     S
V10     V14    10.0   1_455     S
V11     V21    10.0   .     S
V11     V16    10.0   1_454     S
V11     V15    10.0   1_455     S
V12     V22    10.0   .     S
V12     V15    10.0   1_455     S
V12     V16    10.0   1_455     S
V13     V15    10.0   .     S
V13     V10    10.0   1_655     S
V13     V9    10.0   1_655     S
V13     V17    10.0   .     S
V14     V16    10.0   .     S
V14     V9    10.0   1_656     S
V14     V10    10.0   1_655     S
V14     V18    10.0   .     S
V15     V12    10.0   1_655     S
V15     V11    10.0   1_655     S
V16     V11    10.0   1_656     S
V16     V12    10.0   1_655     S
V17     V19    10.0   .     S
V17     V23    10.0   1_545     S
V17     V24    10.0   1_545     S
V18     V20    10.0   .     S
V18     V24    10.0   1_545     S
V18     V23    10.0   1_546     S
V19     V22    10.0   1_545     S
V19     V21    10.0   1_545     S
V20     V21    10.0   1_546     S
V20     V22    10.0   1_545     S
V21     V23    10.0   .     S
V21     V20    10.0   1_564     S
V21     V19    10.0   1_565     S
V22     V24    10.0   .     S
V22     V19    10.0   1_565     S
V22     V20    10.0   1_565     S
V23     V17    10.0   1_565     S
V23     V18    10.0   1_564     S
V24     V18    10.0   1_565     S
V24     V17    10.0   1_565     S
