data_cap
_audit_creation_date              2019-12-31
_audit_creation_method            'Pymatgen'
_symmetry_space_group_name_H-M    'P1'
_symmetry_Int_Tables_number       1
loop_
_symmetry_equiv_pos_as_xyz
  x,y,z
_cell_length_a                    26.4576
_cell_length_b                    26.4576
_cell_length_c                    30.0
_cell_angle_alpha                 90.0
_cell_angle_beta                 90.0
_cell_angle_gamma                 90.0
loop_
_atom_site_label
_atom_site_type_symbol
_atom_site_fract_x
_atom_site_fract_y
_atom_site_fract_z
V1     V     0.0   0.125   0.125
V2     V     0.0   0.125   0.4583
V3     V     0.0   0.125   0.7917
V4     V     0.0   0.625   0.125
V5     V     0.0   0.625   0.4583
V6     V     0.0   0.625   0.7917
V7     V     0.5   0.125   0.125
V8     V     0.5   0.125   0.4583
V9     V     0.5   0.125   0.7917
V10     V     0.5   0.625   0.125
V11     V     0.5   0.625   0.4583
V12     V     0.5   0.625   0.7917
V13     V     0.0   0.375   0.2083
V14     V     0.0   0.375   0.5417
V15     V     0.0   0.375   0.875
V16     V     0.0   0.875   0.2083
V17     V     0.0   0.875   0.5417
V18     V     0.0   0.875   0.875
V19     V     0.5   0.375   0.2083
V20     V     0.5   0.375   0.5417
V21     V     0.5   0.375   0.875
V22     V     0.5   0.875   0.2083
V23     V     0.5   0.875   0.5417
V24     V     0.5   0.875   0.875
V25     V     0.25   0.375   0.2917
V26     V     0.25   0.375   0.625
V27     V     0.25   0.375   0.9583
V28     V     0.25   0.875   0.2917
V29     V     0.25   0.875   0.625
V30     V     0.25   0.875   0.9583
V31     V     0.75   0.375   0.2917
V32     V     0.75   0.375   0.625
V33     V     0.75   0.375   0.9583
V34     V     0.75   0.875   0.2917
V35     V     0.75   0.875   0.625
V36     V     0.75   0.875   0.9583
V37     V     0.25   0.125   0.0417
V38     V     0.25   0.125   0.375
V39     V     0.25   0.125   0.7083
V40     V     0.25   0.625   0.0417
V41     V     0.25   0.625   0.375
V42     V     0.25   0.625   0.7083
V43     V     0.75   0.125   0.0417
V44     V     0.75   0.125   0.375
V45     V     0.75   0.125   0.7083
V46     V     0.75   0.625   0.0417
V47     V     0.75   0.625   0.375
V48     V     0.75   0.625   0.7083
loop_
_geom_bond_atom_site_label_1
_geom_bond_atom_site_label_2
_geom_bond_distance
_geom_bond_site_symmetry_2
_ccdc_geom_bond_type
V1     V15    10.0   1_554     S
V1     V2    10.0   .     S
V1     V3    10.0   1_554     S
V1     V44    10.0   1_455     S
V1     V38    10.0   .     S
V1     V18    10.0   1_544     S
V2     V13    10.0   .     S
V2     V3    10.0   .     S
V2     V45    10.0   1_455     S
V2     V39    10.0   .     S
V2     V16    10.0   1_545     S
V3     V14    10.0   .     S
V3     V1    10.0   1_556     S
V3     V43    10.0   1_456     S
V3     V37    10.0   1_556     S
V3     V17    10.0   1_545     S
V4     V18    10.0   1_554     S
V4     V5    10.0   .     S
V4     V6    10.0   1_554     S
V4     V47    10.0   1_455     S
V4     V41    10.0   .     S
V4     V15    10.0   1_554     S
V5     V16    10.0   .     S
V5     V6    10.0   .     S
V5     V48    10.0   1_455     S
V5     V42    10.0   .     S
V5     V13    10.0   .     S
V6     V17    10.0   .     S
V6     V4    10.0   1_556     S
V6     V46    10.0   1_456     S
V6     V40    10.0   1_556     S
V6     V14    10.0   .     S
V7     V21    10.0   1_554     S
V7     V8    10.0   .     S
V7     V9    10.0   1_554     S
V7     V38    10.0   .     S
V7     V44    10.0   .     S
V7     V24    10.0   1_544     S
V8     V19    10.0   .     S
V8     V9    10.0   .     S
V8     V39    10.0   .     S
V8     V45    10.0   .     S
V8     V22    10.0   1_545     S
V9     V20    10.0   .     S
V9     V7    10.0   1_556     S
V9     V37    10.0   1_556     S
V9     V43    10.0   1_556     S
V9     V23    10.0   1_545     S
V10     V24    10.0   1_554     S
V10     V11    10.0   .     S
V10     V12    10.0   1_554     S
V10     V41    10.0   .     S
V10     V47    10.0   .     S
V10     V21    10.0   1_554     S
V11     V22    10.0   .     S
V11     V12    10.0   .     S
V11     V42    10.0   .     S
V11     V48    10.0   .     S
V11     V19    10.0   .     S
V12     V23    10.0   .     S
V12     V10    10.0   1_556     S
V12     V40    10.0   1_556     S
V12     V46    10.0   1_556     S
V12     V20    10.0   .     S
V13     V15    10.0   1_554     S
V13     V14    10.0   .     S
V13     V33    10.0   1_454     S
V13     V27    10.0   1_554     S
V14     V15    10.0   .     S
V14     V31    10.0   1_455     S
V14     V25    10.0   .     S
V15     V1    10.0   1_556     S
V15     V4    10.0   1_556     S
V15     V13    10.0   1_556     S
V15     V32    10.0   1_455     S
V15     V26    10.0   .     S
V16     V2    10.0   1_565     S
V16     V18    10.0   1_554     S
V16     V17    10.0   .     S
V16     V36    10.0   1_454     S
V16     V30    10.0   1_554     S
V17     V3    10.0   1_565     S
V17     V18    10.0   .     S
V17     V34    10.0   1_455     S
V17     V28    10.0   .     S
V18     V4    10.0   1_556     S
V18     V1    10.0   1_566     S
V18     V16    10.0   1_556     S
V18     V35    10.0   1_455     S
V18     V29    10.0   .     S
V19     V21    10.0   1_554     S
V19     V20    10.0   .     S
V19     V27    10.0   1_554     S
V19     V33    10.0   1_554     S
V20     V21    10.0   .     S
V20     V25    10.0   .     S
V20     V31    10.0   .     S
V21     V7    10.0   1_556     S
V21     V10    10.0   1_556     S
V21     V19    10.0   1_556     S
V21     V26    10.0   .     S
V21     V32    10.0   .     S
V22     V8    10.0   1_565     S
V22     V24    10.0   1_554     S
V22     V23    10.0   .     S
V22     V30    10.0   1_554     S
V22     V36    10.0   1_554     S
V23     V9    10.0   1_565     S
V23     V24    10.0   .     S
V23     V28    10.0   .     S
V23     V34    10.0   .     S
V24     V10    10.0   1_556     S
V24     V7    10.0   1_566     S
V24     V22    10.0   1_556     S
V24     V29    10.0   .     S
V24     V35    10.0   .     S
V25     V27    10.0   1_554     S
V25     V26    10.0   .     S
V25     V37    10.0   .     S
V25     V40    10.0   .     S
V26     V27    10.0   .     S
V26     V38    10.0   .     S
V26     V41    10.0   .     S
V27     V19    10.0   1_556     S
V27     V13    10.0   1_556     S
V27     V25    10.0   1_556     S
V27     V39    10.0   .     S
V27     V42    10.0   .     S
V28     V30    10.0   1_554     S
V28     V29    10.0   .     S
V28     V40    10.0   .     S
V28     V37    10.0   1_565     S
V29     V30    10.0   .     S
V29     V41    10.0   .     S
V29     V38    10.0   1_565     S
V30     V22    10.0   1_556     S
V30     V16    10.0   1_556     S
V30     V28    10.0   1_556     S
V30     V42    10.0   .     S
V30     V39    10.0   1_565     S
V31     V14    10.0   1_655     S
V31     V33    10.0   1_554     S
V31     V32    10.0   .     S
V31     V43    10.0   .     S
V31     V46    10.0   .     S
V32     V15    10.0   1_655     S
V32     V33    10.0   .     S
V32     V44    10.0   .     S
V32     V47    10.0   .     S
V33     V13    10.0   1_656     S
V33     V19    10.0   1_556     S
V33     V31    10.0   1_556     S
V33     V45    10.0   .     S
V33     V48    10.0   .     S
V34     V17    10.0   1_655     S
V34     V36    10.0   1_554     S
V34     V35    10.0   .     S
V34     V46    10.0   .     S
V34     V43    10.0   1_565     S
V35     V18    10.0   1_655     S
V35     V36    10.0   .     S
V35     V47    10.0   .     S
V35     V44    10.0   1_565     S
V36     V16    10.0   1_656     S
V36     V22    10.0   1_556     S
V36     V34    10.0   1_556     S
V36     V48    10.0   .     S
V36     V45    10.0   1_565     S
V37     V9    10.0   1_554     S
V37     V3    10.0   1_554     S
V37     V28    10.0   1_545     S
V37     V38    10.0   .     S
V37     V39    10.0   1_554     S
V38     V29    10.0   1_545     S
V38     V39    10.0   .     S
V39     V30    10.0   1_545     S
V39     V37    10.0   1_556     S
V40     V12    10.0   1_554     S
V40     V6    10.0   1_554     S
V40     V41    10.0   .     S
V40     V42    10.0   1_554     S
V41     V42    10.0   .     S
V42     V40    10.0   1_556     S
V43     V3    10.0   1_654     S
V43     V9    10.0   1_554     S
V43     V34    10.0   1_545     S
V43     V44    10.0   .     S
V43     V45    10.0   1_554     S
V44     V1    10.0   1_655     S
V44     V35    10.0   1_545     S
V44     V45    10.0   .     S
V45     V2    10.0   1_655     S
V45     V36    10.0   1_545     S
V45     V43    10.0   1_556     S
V46     V6    10.0   1_654     S
V46     V12    10.0   1_554     S
V46     V47    10.0   .     S
V46     V48    10.0   1_554     S
V47     V4    10.0   1_655     S
V47     V48    10.0   .     S
V48     V5    10.0   1_655     S
V48     V46    10.0   1_556     S
