data_cas
_audit_creation_date              2019-12-31
_audit_creation_method            'Pymatgen'
_symmetry_space_group_name_H-M    'P1'
_symmetry_Int_Tables_number       1
loop_
_symmetry_equiv_pos_as_xyz
  x,y,z
_cell_length_a                    33.2078
_cell_length_b                    43.6889
_cell_length_c                    55.0088
_cell_angle_alpha                 90.0
_cell_angle_beta                 90.0
_cell_angle_gamma                 90.0
loop_
_atom_site_label
_atom_site_type_symbol
_atom_site_fract_x
_atom_site_fract_y
_atom_site_fract_z
V1     V     0.0   0.2428   0.4498
V2     V     0.5   0.2428   0.4498
V3     V     0.25   0.2572   0.5502
V4     V     0.75   0.2572   0.5502
Ti5     Ti     0.0   0.9807   0.5895
Ti6     Ti     0.5   0.9807   0.5895
Ti7     Ti     0.0   0.0193   0.4105
Ti8     Ti     0.5   0.0193   0.4105
V9     V     0.0   0.7572   0.5502
V10     V     0.5   0.7572   0.5502
V11     V     0.25   0.7428   0.4498
V12     V     0.75   0.7428   0.4498
Ti13     Ti     0.25   0.4807   0.5895
Ti14     Ti     0.75   0.4807   0.5895
Ti15     Ti     0.25   0.5193   0.4105
Ti16     Ti     0.75   0.5193   0.4105
Er17     Er     0.0   0.4263   0.3411
Er18     Er     0.5   0.4263   0.3411
Er19     Er     0.25   0.9263   0.3411
Er20     Er     0.75   0.9263   0.3411
Er21     Er     0.0   0.5737   0.659
Er22     Er     0.5   0.5737   0.659
Er23     Er     0.25   0.0737   0.659
Er24     Er     0.75   0.0737   0.659
V25     V     0.0   0.2428   0.0502
V26     V     0.5   0.2428   0.0502
V27     V     0.25   0.2572   0.9498
V28     V     0.75   0.2572   0.9498
Ti29     Ti     0.25   0.4807   0.9105
Ti30     Ti     0.75   0.4807   0.9105
Ti31     Ti     0.25   0.5193   0.0895
Ti32     Ti     0.75   0.5193   0.0895
V33     V     0.0   0.7572   0.9498
V34     V     0.5   0.7572   0.9498
V35     V     0.25   0.7428   0.0502
V36     V     0.75   0.7428   0.0502
Ti37     Ti     0.0   0.9807   0.9105
Ti38     Ti     0.5   0.9807   0.9105
Ti39     Ti     0.0   0.0193   0.0895
Ti40     Ti     0.5   0.0193   0.0895
Er41     Er     0.0   0.4263   0.159
Er42     Er     0.5   0.4263   0.159
Er43     Er     0.25   0.9263   0.159
Er44     Er     0.75   0.9263   0.159
Er45     Er     0.0   0.5737   0.841
Er46     Er     0.5   0.5737   0.841
Er47     Er     0.25   0.0737   0.841
Er48     Er     0.75   0.0737   0.841
loop_
_geom_bond_atom_site_label_1
_geom_bond_atom_site_label_2
_geom_bond_distance
_geom_bond_site_symmetry_2
_ccdc_geom_bond_type
V1     V4    9.992   1_455     S
V1     V3    9.992   .     S
V1     Ti7    10.0   .     S
V1     Er17    10.003   .     S
V2     V3    9.992   .     S
V2     V4    9.992   .     S
V2     Ti8    10.0   .     S
V2     Er18    10.003   .     S
V3     Ti13    10.0   .     S
V3     Er23    10.003   .     S
V4     V1    9.992   1_655     S
V4     Ti14    10.0   .     S
V4     Er24    10.003   .     S
Ti5     Ti7    9.985   1_565     S
Ti5     V9    10.0   .     S
Ti5     Er24    10.002   1_465     S
Ti5     Er23    10.002   1_565     S
Ti6     Ti8    9.985   1_565     S
Ti6     V10    10.0   .     S
Ti6     Er23    10.002   1_565     S
Ti6     Er24    10.002   1_565     S
Ti7     Ti5    9.985   1_545     S
Ti7     Er20    10.002   1_445     S
Ti7     Er19    10.002   1_545     S
Ti8     Ti6    9.985   1_545     S
Ti8     Er19    10.002   1_545     S
Ti8     Er20    10.002   1_545     S
V9     V12    9.992   1_455     S
V9     V11    9.992   .     S
V9     Er21    10.003   .     S
V10     V11    9.992   .     S
V10     V12    9.992   .     S
V10     Er22    10.003   .     S
V11     Ti15    10.0   .     S
V11     Er19    10.003   .     S
V12     V9    9.992   1_655     S
V12     Ti16    10.0   .     S
V12     Er20    10.003   .     S
Ti13     Ti15    9.985   .     S
Ti13     Er21    10.002   .     S
Ti13     Er22    10.002   .     S
Ti14     Ti16    9.985   .     S
Ti14     Er22    10.002   .     S
Ti14     Er21    10.002   1_655     S
Ti15     Er17    10.002   .     S
Ti15     Er18    10.002   .     S
Ti16     Er18    10.002   .     S
Ti16     Er17    10.002   1_655     S
Er17     Ti16    10.002   1_455     S
Er17     Er41    10.017   .     S
Er18     Er42    10.017   .     S
Er19     Ti8    10.002   1_565     S
Er19     Ti7    10.002   1_565     S
Er19     Er43    10.017   .     S
Er20     Ti7    10.002   1_665     S
Er20     Ti8    10.002   1_565     S
Er20     Er44    10.017   .     S
Er21     Ti14    10.002   1_455     S
Er21     Er45    10.017   .     S
Er22     Er46    10.017   .     S
Er23     Ti6    10.002   1_545     S
Er23     Ti5    10.002   1_545     S
Er23     Er47    10.017   .     S
Er24     Ti5    10.002   1_645     S
Er24     Ti6    10.002   1_545     S
Er24     Er48    10.017   .     S
V25     V28    9.992   1_454     S
V25     V27    9.992   1_554     S
V25     Ti39    10.0   .     S
V25     Er41    10.003   .     S
V26     V27    9.992   1_554     S
V26     V28    9.992   1_554     S
V26     Ti40    10.0   .     S
V26     Er42    10.003   .     S
V27     V26    9.992   1_556     S
V27     V25    9.992   1_556     S
V27     Ti29    10.0   .     S
V27     Er47    10.003   .     S
V28     V25    9.992   1_656     S
V28     V26    9.992   1_556     S
V28     Ti30    10.0   .     S
V28     Er48    10.003   .     S
Ti29     Ti31    9.985   1_556     S
Ti29     Er45    10.002   .     S
Ti29     Er46    10.002   .     S
Ti30     Ti32    9.985   1_556     S
Ti30     Er46    10.002   .     S
Ti30     Er45    10.002   1_655     S
Ti31     Ti29    9.985   1_554     S
Ti31     V35    10.0   .     S
Ti31     Er41    10.002   .     S
Ti31     Er42    10.002   .     S
Ti32     Ti30    9.985   1_554     S
Ti32     V36    10.0   .     S
Ti32     Er42    10.002   .     S
Ti32     Er41    10.002   1_655     S
V33     V36    9.992   1_456     S
V33     V35    9.992   1_556     S
V33     Ti37    10.0   .     S
V33     Er45    10.003   .     S
V34     V35    9.992   1_556     S
V34     V36    9.992   1_556     S
V34     Ti38    10.0   .     S
V34     Er46    10.003   .     S
V35     V34    9.992   1_554     S
V35     V33    9.992   1_554     S
V35     Er43    10.003   .     S
V36     V33    9.992   1_654     S
V36     V34    9.992   1_554     S
V36     Er44    10.003   .     S
Ti37     Ti39    9.985   1_566     S
Ti37     Er48    10.002   1_465     S
Ti37     Er47    10.002   1_565     S
Ti38     Ti40    9.985   1_566     S
Ti38     Er47    10.002   1_565     S
Ti38     Er48    10.002   1_565     S
Ti39     Ti37    9.985   1_544     S
Ti39     Er43    10.002   1_545     S
Ti39     Er44    10.002   1_445     S
Ti40     Ti38    9.985   1_544     S
Ti40     Er44    10.002   1_545     S
Ti40     Er43    10.002   1_545     S
Er41     Ti32    10.002   1_455     S
Er43     Ti39    10.002   1_565     S
Er43     Ti40    10.002   1_565     S
Er44     Ti40    10.002   1_565     S
Er44     Ti39    10.002   1_665     S
Er45     Ti30    10.002   1_455     S
Er47     Ti38    10.002   1_545     S
Er47     Ti37    10.002   1_545     S
Er48     Ti37    10.002   1_645     S
Er48     Ti38    10.002   1_545     S
