data_cbs
_audit_creation_date              2019-12-31
_audit_creation_method            'Pymatgen'
_symmetry_space_group_name_H-M    'P1'
_symmetry_Int_Tables_number       1
loop_
_symmetry_equiv_pos_as_xyz
  x,y,z
_cell_length_a                    30.0
_cell_length_b                    30.0
_cell_length_c                    37.3205
_cell_angle_alpha                 90.0
_cell_angle_beta                 90.0
_cell_angle_gamma                 90.0
loop_
_atom_site_label
_atom_site_type_symbol
_atom_site_fract_x
_atom_site_fract_y
_atom_site_fract_z
Er1     Er     0.25   0.0   0.616
Er2     Er     0.25   0.3333   0.616
Er3     Er     0.25   0.6667   0.616
Er4     Er     0.5833   0.0   0.616
Er5     Er     0.5833   0.3333   0.616
Er6     Er     0.5833   0.6667   0.616
Er7     Er     0.9167   0.0   0.616
Er8     Er     0.9167   0.3333   0.616
Er9     Er     0.9167   0.6667   0.616
Er10     Er     0.0833   0.0   0.384
Er11     Er     0.0833   0.3333   0.384
Er12     Er     0.0833   0.6667   0.384
Er13     Er     0.4167   0.0   0.384
Er14     Er     0.4167   0.3333   0.384
Er15     Er     0.4167   0.6667   0.384
Er16     Er     0.75   0.0   0.384
Er17     Er     0.75   0.3333   0.384
Er18     Er     0.75   0.6667   0.384
V19     V     0.0833   0.0   0.116
V20     V     0.0833   0.3333   0.116
V21     V     0.0833   0.6667   0.116
V22     V     0.4167   0.0   0.116
V23     V     0.4167   0.3333   0.116
V24     V     0.4167   0.6667   0.116
V25     V     0.75   0.0   0.116
V26     V     0.75   0.3333   0.116
V27     V     0.75   0.6667   0.116
V28     V     0.25   0.0   0.884
V29     V     0.25   0.3333   0.884
V30     V     0.25   0.6667   0.884
V31     V     0.5833   0.0   0.884
V32     V     0.5833   0.3333   0.884
V33     V     0.5833   0.6667   0.884
V34     V     0.9167   0.0   0.884
V35     V     0.9167   0.3333   0.884
V36     V     0.9167   0.6667   0.884
loop_
_geom_bond_atom_site_label_1
_geom_bond_atom_site_label_2
_geom_bond_distance
_geom_bond_site_symmetry_2
_ccdc_geom_bond_type
Er1     Er10    10.0   .     S
Er1     Er13    10.0   .     S
Er1     Er2    10.0   .     S
Er1     Er3    10.0   1_545     S
Er1     V28    10.0   .     S
Er2     Er11    10.0   .     S
Er2     Er14    10.0   .     S
Er2     Er3    10.0   .     S
Er2     V29    10.0   .     S
Er3     Er12    10.0   .     S
Er3     Er15    10.0   .     S
Er3     Er1    10.0   1_565     S
Er3     V30    10.0   .     S
Er4     Er13    10.0   .     S
Er4     Er16    10.0   .     S
Er4     Er5    10.0   .     S
Er4     Er6    10.0   1_545     S
Er4     V31    10.0   .     S
Er5     Er14    10.0   .     S
Er5     Er17    10.0   .     S
Er5     Er6    10.0   .     S
Er5     V32    10.0   .     S
Er6     Er15    10.0   .     S
Er6     Er18    10.0   .     S
Er6     Er4    10.0   1_565     S
Er6     V33    10.0   .     S
Er7     Er16    10.0   .     S
Er7     Er10    10.0   1_655     S
Er7     Er8    10.0   .     S
Er7     Er9    10.0   1_545     S
Er7     V34    10.0   .     S
Er8     Er17    10.0   .     S
Er8     Er11    10.0   1_655     S
Er8     Er9    10.0   .     S
Er8     V35    10.0   .     S
Er9     Er18    10.0   .     S
Er9     Er12    10.0   1_655     S
Er9     Er7    10.0   1_565     S
Er9     V36    10.0   .     S
Er10     Er7    10.0   1_455     S
Er10     Er11    10.0   .     S
Er10     Er12    10.0   1_545     S
Er10     V19    10.0   .     S
Er11     Er8    10.0   1_455     S
Er11     Er12    10.0   .     S
Er11     V20    10.0   .     S
Er12     Er9    10.0   1_455     S
Er12     Er10    10.0   1_565     S
Er12     V21    10.0   .     S
Er13     Er14    10.0   .     S
Er13     Er15    10.0   1_545     S
Er13     V22    10.0   .     S
Er14     Er15    10.0   .     S
Er14     V23    10.0   .     S
Er15     Er13    10.0   1_565     S
Er15     V24    10.0   .     S
Er16     Er17    10.0   .     S
Er16     Er18    10.0   1_545     S
Er16     V25    10.0   .     S
Er17     Er18    10.0   .     S
Er17     V26    10.0   .     S
Er18     Er16    10.0   1_565     S
Er18     V27    10.0   .     S
V19     V22    10.0   .     S
V19     V25    10.0   1_455     S
V19     V20    10.0   .     S
V19     V21    10.0   1_545     S
V19     V28    10.0   1_554     S
V19     V34    10.0   1_454     S
V20     V23    10.0   .     S
V20     V26    10.0   1_455     S
V20     V21    10.0   .     S
V20     V29    10.0   1_554     S
V20     V35    10.0   1_454     S
V21     V24    10.0   .     S
V21     V27    10.0   1_455     S
V21     V19    10.0   1_565     S
V21     V30    10.0   1_554     S
V21     V36    10.0   1_454     S
V22     V25    10.0   .     S
V22     V23    10.0   .     S
V22     V24    10.0   1_545     S
V22     V31    10.0   1_554     S
V22     V28    10.0   1_554     S
V23     V26    10.0   .     S
V23     V24    10.0   .     S
V23     V32    10.0   1_554     S
V23     V29    10.0   1_554     S
V24     V27    10.0   .     S
V24     V22    10.0   1_565     S
V24     V33    10.0   1_554     S
V24     V30    10.0   1_554     S
V25     V19    10.0   1_655     S
V25     V26    10.0   .     S
V25     V27    10.0   1_545     S
V25     V34    10.0   1_554     S
V25     V31    10.0   1_554     S
V26     V20    10.0   1_655     S
V26     V27    10.0   .     S
V26     V35    10.0   1_554     S
V26     V32    10.0   1_554     S
V27     V21    10.0   1_655     S
V27     V25    10.0   1_565     S
V27     V36    10.0   1_554     S
V27     V33    10.0   1_554     S
V28     V19    10.0   1_556     S
V28     V22    10.0   1_556     S
V28     V34    10.0   1_455     S
V28     V31    10.0   .     S
V28     V29    10.0   .     S
V28     V30    10.0   1_545     S
V29     V20    10.0   1_556     S
V29     V23    10.0   1_556     S
V29     V35    10.0   1_455     S
V29     V32    10.0   .     S
V29     V30    10.0   .     S
V30     V21    10.0   1_556     S
V30     V24    10.0   1_556     S
V30     V36    10.0   1_455     S
V30     V33    10.0   .     S
V30     V28    10.0   1_565     S
V31     V22    10.0   1_556     S
V31     V25    10.0   1_556     S
V31     V34    10.0   .     S
V31     V32    10.0   .     S
V31     V33    10.0   1_545     S
V32     V23    10.0   1_556     S
V32     V26    10.0   1_556     S
V32     V35    10.0   .     S
V32     V33    10.0   .     S
V33     V24    10.0   1_556     S
V33     V27    10.0   1_556     S
V33     V36    10.0   .     S
V33     V31    10.0   1_565     S
V34     V25    10.0   1_556     S
V34     V19    10.0   1_656     S
V34     V28    10.0   1_655     S
V34     V35    10.0   .     S
V34     V36    10.0   1_545     S
V35     V26    10.0   1_556     S
V35     V20    10.0   1_656     S
V35     V29    10.0   1_655     S
V35     V36    10.0   .     S
V36     V27    10.0   1_556     S
V36     V21    10.0   1_656     S
V36     V30    10.0   1_655     S
V36     V34    10.0   1_565     S
