data_cco
_audit_creation_date              2019-12-31
_audit_creation_method            'Pymatgen'
_symmetry_space_group_name_H-M    'P1'
_symmetry_Int_Tables_number       1
loop_
_symmetry_equiv_pos_as_xyz
  x,y,z
_cell_length_a                    24.5422
_cell_length_b                    31.5862
_cell_length_c                    30.9598
_cell_angle_alpha                 90.0
_cell_angle_beta                 90.0
_cell_angle_gamma                 90.0
loop_
_atom_site_label
_atom_site_type_symbol
_atom_site_fract_x
_atom_site_fract_y
_atom_site_fract_z
V1     V     0.25   0.3998   0.125
V2     V     0.25   0.3998   0.625
V3     V     0.25   0.8998   0.125
V4     V     0.25   0.8998   0.625
V5     V     0.75   0.3998   0.125
V6     V     0.75   0.3998   0.625
V7     V     0.75   0.8998   0.125
V8     V     0.75   0.8998   0.625
V9     V     0.0   0.3502   0.375
V10     V     0.0   0.3502   0.875
V11     V     0.0   0.8502   0.375
V12     V     0.0   0.8502   0.875
V13     V     0.5   0.3502   0.375
V14     V     0.5   0.3502   0.875
V15     V     0.5   0.8502   0.375
V16     V     0.5   0.8502   0.875
V17     V     0.0   0.1498   0.125
V18     V     0.0   0.1498   0.625
V19     V     0.0   0.6498   0.125
V20     V     0.0   0.6498   0.625
V21     V     0.5   0.1498   0.125
V22     V     0.5   0.1498   0.625
V23     V     0.5   0.6498   0.125
V24     V     0.5   0.6498   0.625
V25     V     0.25   0.1002   0.375
V26     V     0.25   0.1002   0.875
V27     V     0.25   0.6002   0.375
V28     V     0.25   0.6002   0.875
V29     V     0.75   0.1002   0.375
V30     V     0.75   0.1002   0.875
V31     V     0.75   0.6002   0.375
V32     V     0.75   0.6002   0.875
loop_
_geom_bond_atom_site_label_1
_geom_bond_atom_site_label_2
_geom_bond_distance
_geom_bond_site_symmetry_2
_ccdc_geom_bond_type
V1     V21    10.0   .     S
V1     V17    10.0   .     S
V1     V10    10.0   1_554     S
V1     V9    10.0   .     S
V1     V13    10.0   .     S
V1     V14    10.0   1_554     S
V1     V28    10.0   1_554     S
V1     V19    10.0   .     S
V1     V27    10.0   .     S
V1     V23    10.0   .     S
V2     V22    10.0   .     S
V2     V18    10.0   .     S
V2     V9    10.0   .     S
V2     V10    10.0   .     S
V2     V14    10.0   .     S
V2     V13    10.0   .     S
V2     V27    10.0   .     S
V2     V20    10.0   .     S
V2     V28    10.0   .     S
V2     V24    10.0   .     S
V3     V23    10.0   .     S
V3     V19    10.0   .     S
V3     V12    10.0   1_554     S
V3     V11    10.0   .     S
V3     V15    10.0   .     S
V3     V16    10.0   1_554     S
V3     V26    10.0   1_564     S
V3     V17    10.0   1_565     S
V3     V25    10.0   1_565     S
V3     V21    10.0   1_565     S
V4     V24    10.0   .     S
V4     V20    10.0   .     S
V4     V11    10.0   .     S
V4     V12    10.0   .     S
V4     V16    10.0   .     S
V4     V15    10.0   .     S
V4     V25    10.0   1_565     S
V4     V18    10.0   1_565     S
V4     V26    10.0   1_565     S
V4     V22    10.0   1_565     S
V5     V17    10.0   1_655     S
V5     V21    10.0   .     S
V5     V14    10.0   1_554     S
V5     V13    10.0   .     S
V5     V9    10.0   1_655     S
V5     V10    10.0   1_654     S
V5     V32    10.0   1_554     S
V5     V23    10.0   .     S
V5     V31    10.0   .     S
V5     V19    10.0   1_655     S
V6     V18    10.0   1_655     S
V6     V22    10.0   .     S
V6     V13    10.0   .     S
V6     V14    10.0   .     S
V6     V10    10.0   1_655     S
V6     V9    10.0   1_655     S
V6     V31    10.0   .     S
V6     V24    10.0   .     S
V6     V32    10.0   .     S
V6     V20    10.0   1_655     S
V7     V19    10.0   1_655     S
V7     V23    10.0   .     S
V7     V16    10.0   1_554     S
V7     V15    10.0   .     S
V7     V11    10.0   1_655     S
V7     V12    10.0   1_654     S
V7     V30    10.0   1_564     S
V7     V21    10.0   1_565     S
V7     V29    10.0   1_565     S
V7     V17    10.0   1_665     S
V8     V20    10.0   1_655     S
V8     V24    10.0   .     S
V8     V15    10.0   .     S
V8     V16    10.0   .     S
V8     V12    10.0   1_655     S
V8     V11    10.0   1_655     S
V8     V29    10.0   1_565     S
V8     V22    10.0   1_565     S
V8     V30    10.0   1_565     S
V8     V18    10.0   1_665     S
V9     V18    10.0   .     S
V9     V25    10.0   .     S
V9     V29    10.0   1_455     S
V9     V17    10.0   .     S
V9     V5    10.0   1_455     S
V9     V6    10.0   1_455     S
V9     V27    10.0   .     S
V9     V31    10.0   1_455     S
V10     V17    10.0   1_556     S
V10     V26    10.0   .     S
V10     V30    10.0   1_455     S
V10     V18    10.0   .     S
V10     V1    10.0   1_556     S
V10     V6    10.0   1_455     S
V10     V5    10.0   1_456     S
V10     V28    10.0   .     S
V10     V32    10.0   1_455     S
V11     V20    10.0   .     S
V11     V27    10.0   .     S
V11     V31    10.0   1_455     S
V11     V19    10.0   .     S
V11     V7    10.0   1_455     S
V11     V8    10.0   1_455     S
V11     V25    10.0   1_565     S
V11     V29    10.0   1_465     S
V12     V19    10.0   1_556     S
V12     V28    10.0   .     S
V12     V32    10.0   1_455     S
V12     V20    10.0   .     S
V12     V3    10.0   1_556     S
V12     V8    10.0   1_455     S
V12     V7    10.0   1_456     S
V12     V26    10.0   1_565     S
V12     V30    10.0   1_465     S
V13     V22    10.0   .     S
V13     V29    10.0   .     S
V13     V25    10.0   .     S
V13     V21    10.0   .     S
V13     V31    10.0   .     S
V13     V27    10.0   .     S
V14     V21    10.0   1_556     S
V14     V30    10.0   .     S
V14     V26    10.0   .     S
V14     V22    10.0   .     S
V14     V5    10.0   1_556     S
V14     V1    10.0   1_556     S
V14     V32    10.0   .     S
V14     V28    10.0   .     S
V15     V24    10.0   .     S
V15     V31    10.0   .     S
V15     V27    10.0   .     S
V15     V23    10.0   .     S
V15     V29    10.0   1_565     S
V15     V25    10.0   1_565     S
V16     V23    10.0   1_556     S
V16     V32    10.0   .     S
V16     V28    10.0   .     S
V16     V24    10.0   .     S
V16     V7    10.0   1_556     S
V16     V3    10.0   1_556     S
V16     V30    10.0   1_565     S
V16     V26    10.0   1_565     S
V17     V5    10.0   1_455     S
V17     V10    10.0   1_554     S
V17     V26    10.0   1_554     S
V17     V29    10.0   1_455     S
V17     V25    10.0   .     S
V17     V30    10.0   1_454     S
V17     V3    10.0   1_545     S
V17     V7    10.0   1_445     S
V18     V6    10.0   1_455     S
V18     V25    10.0   .     S
V18     V30    10.0   1_455     S
V18     V26    10.0   .     S
V18     V29    10.0   1_455     S
V18     V4    10.0   1_545     S
V18     V8    10.0   1_445     S
V19     V7    10.0   1_455     S
V19     V12    10.0   1_554     S
V19     V28    10.0   1_554     S
V19     V31    10.0   1_455     S
V19     V27    10.0   .     S
V19     V32    10.0   1_454     S
V19     V5    10.0   1_455     S
V20     V8    10.0   1_455     S
V20     V27    10.0   .     S
V20     V32    10.0   1_455     S
V20     V28    10.0   .     S
V20     V31    10.0   1_455     S
V20     V6    10.0   1_455     S
V21     V14    10.0   1_554     S
V21     V30    10.0   1_554     S
V21     V25    10.0   .     S
V21     V29    10.0   .     S
V21     V26    10.0   1_554     S
V21     V7    10.0   1_545     S
V21     V3    10.0   1_545     S
V22     V29    10.0   .     S
V22     V26    10.0   .     S
V22     V30    10.0   .     S
V22     V25    10.0   .     S
V22     V8    10.0   1_545     S
V22     V4    10.0   1_545     S
V23     V16    10.0   1_554     S
V23     V32    10.0   1_554     S
V23     V27    10.0   .     S
V23     V31    10.0   .     S
V23     V28    10.0   1_554     S
V24     V31    10.0   .     S
V24     V28    10.0   .     S
V24     V32    10.0   .     S
V24     V27    10.0   .     S
V25     V11    10.0   1_545     S
V25     V4    10.0   1_545     S
V25     V3    10.0   1_545     S
V25     V15    10.0   1_545     S
V26     V17    10.0   1_556     S
V26     V21    10.0   1_556     S
V26     V12    10.0   1_545     S
V26     V3    10.0   1_546     S
V26     V4    10.0   1_545     S
V26     V16    10.0   1_545     S
V28     V19    10.0   1_556     S
V28     V23    10.0   1_556     S
V28     V1    10.0   1_556     S
V29     V9    10.0   1_655     S
V29     V17    10.0   1_655     S
V29     V18    10.0   1_655     S
V29     V15    10.0   1_545     S
V29     V8    10.0   1_545     S
V29     V7    10.0   1_545     S
V29     V11    10.0   1_645     S
V30     V10    10.0   1_655     S
V30     V21    10.0   1_556     S
V30     V18    10.0   1_655     S
V30     V17    10.0   1_656     S
V30     V16    10.0   1_545     S
V30     V7    10.0   1_546     S
V30     V8    10.0   1_545     S
V30     V12    10.0   1_645     S
V31     V11    10.0   1_655     S
V31     V19    10.0   1_655     S
V31     V20    10.0   1_655     S
V31     V9    10.0   1_655     S
V32     V12    10.0   1_655     S
V32     V23    10.0   1_556     S
V32     V20    10.0   1_655     S
V32     V19    10.0   1_656     S
V32     V5    10.0   1_556     S
V32     V10    10.0   1_655     S
