data_cda
_audit_creation_date              2019-12-31
_audit_creation_method            'Pymatgen'
_symmetry_space_group_name_H-M    'P1'
_symmetry_Int_Tables_number       1
loop_
_symmetry_equiv_pos_as_xyz
  x,y,z
_cell_length_a                    31.6703
_cell_length_b                    31.6703
_cell_length_c                    31.6794
_cell_angle_alpha                 90.0
_cell_angle_beta                 90.0
_cell_angle_gamma                 90.0
loop_
_atom_site_label
_atom_site_type_symbol
_atom_site_fract_x
_atom_site_fract_y
_atom_site_fract_z
V1     V     0.5   0.5   0.0
V2     V     0.5   0.5   0.5
Er3     Er     0.25   0.455   0.1875
Er4     Er     0.25   0.455   0.6875
Er5     Er     0.955   0.75   0.0625
Er6     Er     0.955   0.75   0.5625
Er7     Er     0.75   0.955   0.4375
Er8     Er     0.75   0.955   0.9375
Er9     Er     0.75   0.545   0.1875
Er10     Er     0.75   0.545   0.6875
Er11     Er     0.045   0.25   0.0625
Er12     Er     0.045   0.25   0.5625
V13     V     0.0   0.0   0.25
V14     V     0.0   0.0   0.75
V15     V     0.0   0.5   0.375
V16     V     0.0   0.5   0.875
Er17     Er     0.545   0.75   0.3125
Er18     Er     0.545   0.75   0.8125
Er19     Er     0.455   0.25   0.3125
Er20     Er     0.455   0.25   0.8125
V21     V     0.5   0.0   0.125
V22     V     0.5   0.0   0.625
Er23     Er     0.25   0.045   0.4375
Er24     Er     0.25   0.045   0.9375
loop_
_geom_bond_atom_site_label_1
_geom_bond_atom_site_label_2
_geom_bond_distance
_geom_bond_site_symmetry_2
_ccdc_geom_bond_type
V1     Er3    10.0   .     S
V1     Er9    10.0   .     S
V1     Er20    10.0   1_554     S
V1     Er18    10.0   1_554     S
V2     Er4    10.0   .     S
V2     Er10    10.0   .     S
V2     Er19    10.0   .     S
V2     Er17    10.0   .     S
Er3     V15    10.0   .     S
Er3     Er19    10.0   .     S
Er3     Er11    10.0   .     S
Er4     V16    10.0   .     S
Er4     Er20    10.0   .     S
Er4     Er12    10.0   .     S
Er5     V13    10.0   1_665     S
Er5     V16    10.0   1_654     S
Er5     Er9    10.0   .     S
Er5     Er8    10.0   1_554     S
Er6     V14    10.0   1_665     S
Er6     V15    10.0   1_655     S
Er6     Er10    10.0   .     S
Er6     Er7    10.0   .     S
Er7     V22    10.0   1_565     S
Er7     V13    10.0   1_665     S
Er7     Er17    10.0   .     S
Er8     V21    10.0   1_566     S
Er8     V14    10.0   1_665     S
Er8     Er5    10.0   1_556     S
Er8     Er18    10.0   .     S
Er9     V15    10.0   1_655     S
Er9     Er17    10.0   .     S
Er10     V16    10.0   1_655     S
Er10     Er18    10.0   .     S
Er11     V13    10.0   .     S
Er11     V16    10.0   1_554     S
Er11     Er24    10.0   1_554     S
Er12     V14    10.0   .     S
Er12     V15    10.0   .     S
Er12     Er23    10.0   .     S
V13     Er5    10.0   1_445     S
V13     Er7    10.0   1_445     S
V13     Er23    10.0   .     S
V14     Er6    10.0   1_445     S
V14     Er8    10.0   1_445     S
V14     Er24    10.0   .     S
V15     Er6    10.0   1_455     S
V15     Er9    10.0   1_455     S
V16     Er5    10.0   1_456     S
V16     Er10    10.0   1_455     S
V16     Er11    10.0   1_556     S
Er17     V21    10.0   1_565     S
Er18     V22    10.0   1_565     S
Er18     V1    10.0   1_556     S
Er19     V21    10.0   .     S
Er19     Er23    10.0   .     S
Er20     V1    10.0   1_556     S
Er20     V22    10.0   .     S
Er20     Er24    10.0   .     S
V21     Er8    10.0   1_544     S
V21     Er17    10.0   1_545     S
V21     Er24    10.0   1_554     S
V22     Er7    10.0   1_545     S
V22     Er18    10.0   1_545     S
V22     Er23    10.0   .     S
Er24     V21    10.0   1_556     S
Er24     Er11    10.0   1_556     S
