data_cdl-e
_audit_creation_date              2019-12-31
_audit_creation_method            'Pymatgen'
_symmetry_space_group_name_H-M    'P1'
_symmetry_Int_Tables_number       1
loop_
_symmetry_equiv_pos_as_xyz
  x,y,z
_cell_length_a                    32.6572
_cell_length_b                    32.6572
_cell_length_c                    46.1956
_cell_angle_alpha                 90.0
_cell_angle_beta                 90.0
_cell_angle_gamma                 90.0
loop_
_atom_site_label
_atom_site_type_symbol
_atom_site_fract_x
_atom_site_fract_y
_atom_site_fract_z
Er1     Er     0.0   0.0   0.75
Er2     Er     0.0   0.5   0.75
Er3     Er     0.5   0.0   0.75
Er4     Er     0.5   0.5   0.75
Ti5     Ti     0.25   0.0   0.625
Ti6     Ti     0.25   0.5   0.625
Ti7     Ti     0.75   0.0   0.625
Ti8     Ti     0.75   0.5   0.625
Ti9     Ti     0.25   0.0   0.375
Ti10     Ti     0.25   0.5   0.375
Ti11     Ti     0.75   0.0   0.375
Ti12     Ti     0.75   0.5   0.375
V13     V     0.0   0.0   0.0
V14     V     0.0   0.5   0.0
V15     V     0.5   0.0   0.0
V16     V     0.5   0.5   0.0
Ti17     Ti     0.0   0.25   0.125
Ti18     Ti     0.0   0.75   0.125
Ti19     Ti     0.5   0.25   0.125
Ti20     Ti     0.5   0.75   0.125
Er21     Er     0.0   0.0   0.25
Er22     Er     0.0   0.5   0.25
Er23     Er     0.5   0.0   0.25
Er24     Er     0.5   0.5   0.25
Ti25     Ti     0.0   0.25   0.875
Ti26     Ti     0.0   0.75   0.875
Ti27     Ti     0.5   0.25   0.875
Ti28     Ti     0.5   0.75   0.875
V29     V     0.0   0.0   0.5
V30     V     0.0   0.5   0.5
V31     V     0.5   0.0   0.5
V32     V     0.5   0.5   0.5
loop_
_geom_bond_atom_site_label_1
_geom_bond_atom_site_label_2
_geom_bond_distance
_geom_bond_site_symmetry_2
_ccdc_geom_bond_type
Er1     Ti7    10.0   1_455     S
Er1     Ti5    10.0   .     S
Er1     Ti26    10.0   1_545     S
Er1     Ti25    10.0   .     S
Er2     Ti8    10.0   1_455     S
Er2     Ti6    10.0   .     S
Er2     Ti25    10.0   .     S
Er2     Ti26    10.0   .     S
Er3     Ti5    10.0   .     S
Er3     Ti7    10.0   .     S
Er3     Ti28    10.0   1_545     S
Er3     Ti27    10.0   .     S
Er4     Ti6    10.0   .     S
Er4     Ti8    10.0   .     S
Er4     Ti27    10.0   .     S
Er4     Ti28    10.0   .     S
Ti5     V31    10.0   .     S
Ti5     V29    10.0   .     S
Ti6     V32    10.0   .     S
Ti6     V30    10.0   .     S
Ti7     Er1    10.0   1_655     S
Ti7     V29    10.0   1_655     S
Ti7     V31    10.0   .     S
Ti8     Er2    10.0   1_655     S
Ti8     V30    10.0   1_655     S
Ti8     V32    10.0   .     S
Ti9     Er21    10.0   .     S
Ti9     Er23    10.0   .     S
Ti9     V29    10.0   .     S
Ti9     V31    10.0   .     S
Ti10     Er22    10.0   .     S
Ti10     Er24    10.0   .     S
Ti10     V30    10.0   .     S
Ti10     V32    10.0   .     S
Ti11     Er23    10.0   .     S
Ti11     Er21    10.0   1_655     S
Ti11     V31    10.0   .     S
Ti11     V29    10.0   1_655     S
Ti12     Er24    10.0   .     S
Ti12     Er22    10.0   1_655     S
Ti12     V32    10.0   .     S
Ti12     V30    10.0   1_655     S
V13     Ti17    10.0   .     S
V13     Ti18    10.0   1_545     S
V13     Ti26    10.0   1_544     S
V13     Ti25    10.0   1_554     S
V14     Ti18    10.0   .     S
V14     Ti17    10.0   .     S
V14     Ti25    10.0   1_554     S
V14     Ti26    10.0   1_554     S
V15     Ti19    10.0   .     S
V15     Ti20    10.0   1_545     S
V15     Ti28    10.0   1_544     S
V15     Ti27    10.0   1_554     S
V16     Ti20    10.0   .     S
V16     Ti19    10.0   .     S
V16     Ti27    10.0   1_554     S
V16     Ti28    10.0   1_554     S
Ti17     Er21    10.0   .     S
Ti17     Er22    10.0   .     S
Ti18     Er22    10.0   .     S
Ti18     Er21    10.0   1_565     S
Ti18     V13    10.0   1_565     S
Ti19     Er23    10.0   .     S
Ti19     Er24    10.0   .     S
Ti20     Er24    10.0   .     S
Ti20     Er23    10.0   1_565     S
Ti20     V15    10.0   1_565     S
Er21     Ti11    10.0   1_455     S
Er21     Ti18    10.0   1_545     S
Er22     Ti12    10.0   1_455     S
Er23     Ti20    10.0   1_545     S
Ti25     V14    10.0   1_556     S
Ti25     V13    10.0   1_556     S
Ti26     V13    10.0   1_566     S
Ti26     Er1    10.0   1_565     S
Ti26     V14    10.0   1_556     S
Ti27     V16    10.0   1_556     S
Ti27     V15    10.0   1_556     S
Ti28     V15    10.0   1_566     S
Ti28     Er3    10.0   1_565     S
Ti28     V16    10.0   1_556     S
V29     Ti7    10.0   1_455     S
V29     Ti11    10.0   1_455     S
V30     Ti8    10.0   1_455     S
V30     Ti12    10.0   1_455     S
