data_cdm
_audit_creation_date              2019-12-31
_audit_creation_method            'Pymatgen'
_symmetry_space_group_name_H-M    'P1'
_symmetry_Int_Tables_number       1
loop_
_symmetry_equiv_pos_as_xyz
  x,y,z
_cell_length_a                    30.0
_cell_length_b                    30.0
_cell_length_c                    59.9998
_cell_angle_alpha                 90.0
_cell_angle_beta                 90.0
_cell_angle_gamma                 90.0
loop_
_atom_site_label
_atom_site_type_symbol
_atom_site_fract_x
_atom_site_fract_y
_atom_site_fract_z
Er1     Er     0.0   0.0   0.1667
Er2     Er     0.0   0.3333   0.1667
Er3     Er     0.0   0.6667   0.1667
Er4     Er     0.3333   0.0   0.1667
Er5     Er     0.3333   0.3333   0.1667
Er6     Er     0.3333   0.6667   0.1667
Er7     Er     0.6667   0.0   0.1667
Er8     Er     0.6667   0.3333   0.1667
Er9     Er     0.6667   0.6667   0.1667
Er10     Er     0.0   0.0   0.3333
Er11     Er     0.0   0.3333   0.3333
Er12     Er     0.0   0.6667   0.3333
Er13     Er     0.3333   0.0   0.3333
Er14     Er     0.3333   0.3333   0.3333
Er15     Er     0.3333   0.6667   0.3333
Er16     Er     0.6667   0.0   0.3333
Er17     Er     0.6667   0.3333   0.3333
Er18     Er     0.6667   0.6667   0.3333
V19     V     0.0   0.0   0.5
V20     V     0.0   0.3333   0.5
V21     V     0.0   0.6667   0.5
V22     V     0.3333   0.0   0.5
V23     V     0.3333   0.3333   0.5
V24     V     0.3333   0.6667   0.5
V25     V     0.6667   0.0   0.5
V26     V     0.6667   0.3333   0.5
V27     V     0.6667   0.6667   0.5
V28     V     0.0   0.0   0.0
V29     V     0.0   0.3333   0.0
V30     V     0.0   0.6667   0.0
V31     V     0.3333   0.0   0.0
V32     V     0.3333   0.3333   0.0
V33     V     0.3333   0.6667   0.0
V34     V     0.6667   0.0   0.0
V35     V     0.6667   0.3333   0.0
V36     V     0.6667   0.6667   0.0
Er37     Er     0.0   0.0   0.8333
Er38     Er     0.0   0.3333   0.8333
Er39     Er     0.0   0.6667   0.8333
Er40     Er     0.3333   0.0   0.8333
Er41     Er     0.3333   0.3333   0.8333
Er42     Er     0.3333   0.6667   0.8333
Er43     Er     0.6667   0.0   0.8333
Er44     Er     0.6667   0.3333   0.8333
Er45     Er     0.6667   0.6667   0.8333
Er46     Er     0.0   0.0   0.6667
Er47     Er     0.0   0.3333   0.6667
Er48     Er     0.0   0.6667   0.6667
Er49     Er     0.3333   0.0   0.6667
Er50     Er     0.3333   0.3333   0.6667
Er51     Er     0.3333   0.6667   0.6667
Er52     Er     0.6667   0.0   0.6667
Er53     Er     0.6667   0.3333   0.6667
Er54     Er     0.6667   0.6667   0.6667
loop_
_geom_bond_atom_site_label_1
_geom_bond_atom_site_label_2
_geom_bond_distance
_geom_bond_site_symmetry_2
_ccdc_geom_bond_type
Er1     Er10    10.0   .     S
Er1     Er2    10.0   .     S
Er1     Er3    10.0   1_545     S
Er1     V28    10.0   .     S
Er2     Er11    10.0   .     S
Er2     Er3    10.0   .     S
Er2     V29    10.0   .     S
Er3     Er12    10.0   .     S
Er3     Er1    10.0   1_565     S
Er3     V30    10.0   .     S
Er4     Er13    10.0   .     S
Er4     Er5    10.0   .     S
Er4     Er6    10.0   1_545     S
Er4     V31    10.0   .     S
Er5     Er14    10.0   .     S
Er5     Er6    10.0   .     S
Er5     V32    10.0   .     S
Er6     Er15    10.0   .     S
Er6     Er4    10.0   1_565     S
Er6     V33    10.0   .     S
Er7     Er16    10.0   .     S
Er7     Er8    10.0   .     S
Er7     Er9    10.0   1_545     S
Er7     V34    10.0   .     S
Er8     Er17    10.0   .     S
Er8     Er9    10.0   .     S
Er8     V35    10.0   .     S
Er9     Er18    10.0   .     S
Er9     Er7    10.0   1_565     S
Er9     V36    10.0   .     S
Er10     Er13    10.0   .     S
Er10     Er16    10.0   1_455     S
Er10     V19    10.0   .     S
Er11     Er14    10.0   .     S
Er11     Er17    10.0   1_455     S
Er11     V20    10.0   .     S
Er12     Er15    10.0   .     S
Er12     Er18    10.0   1_455     S
Er12     V21    10.0   .     S
Er13     Er16    10.0   .     S
Er13     V22    10.0   .     S
Er14     Er17    10.0   .     S
Er14     V23    10.0   .     S
Er15     Er18    10.0   .     S
Er15     V24    10.0   .     S
Er16     Er10    10.0   1_655     S
Er16     V25    10.0   .     S
Er17     Er11    10.0   1_655     S
Er17     V26    10.0   .     S
Er18     Er12    10.0   1_655     S
Er18     V27    10.0   .     S
V19     Er46    10.0   .     S
V19     V22    10.0   .     S
V19     V25    10.0   1_455     S
V20     Er47    10.0   .     S
V20     V23    10.0   .     S
V20     V26    10.0   1_455     S
V21     Er48    10.0   .     S
V21     V24    10.0   .     S
V21     V27    10.0   1_455     S
V22     Er49    10.0   .     S
V22     V25    10.0   .     S
V23     Er50    10.0   .     S
V23     V26    10.0   .     S
V24     Er51    10.0   .     S
V24     V27    10.0   .     S
V25     Er52    10.0   .     S
V25     V19    10.0   1_655     S
V26     Er53    10.0   .     S
V26     V20    10.0   1_655     S
V27     Er54    10.0   .     S
V27     V21    10.0   1_655     S
V28     Er37    10.0   1_554     S
V28     V29    10.0   .     S
V28     V30    10.0   1_545     S
V29     Er38    10.0   1_554     S
V29     V30    10.0   .     S
V30     Er39    10.0   1_554     S
V30     V28    10.0   1_565     S
V31     Er40    10.0   1_554     S
V31     V32    10.0   .     S
V31     V33    10.0   1_545     S
V32     Er41    10.0   1_554     S
V32     V33    10.0   .     S
V33     Er42    10.0   1_554     S
V33     V31    10.0   1_565     S
V34     Er43    10.0   1_554     S
V34     V35    10.0   .     S
V34     V36    10.0   1_545     S
V35     Er44    10.0   1_554     S
V35     V36    10.0   .     S
V36     Er45    10.0   1_554     S
V36     V34    10.0   1_565     S
Er37     V28    10.0   1_556     S
Er37     Er46    10.0   .     S
Er37     Er38    10.0   .     S
Er37     Er39    10.0   1_545     S
Er38     V29    10.0   1_556     S
Er38     Er47    10.0   .     S
Er38     Er39    10.0   .     S
Er39     V30    10.0   1_556     S
Er39     Er48    10.0   .     S
Er39     Er37    10.0   1_565     S
Er40     V31    10.0   1_556     S
Er40     Er49    10.0   .     S
Er40     Er41    10.0   .     S
Er40     Er42    10.0   1_545     S
Er41     V32    10.0   1_556     S
Er41     Er50    10.0   .     S
Er41     Er42    10.0   .     S
Er42     V33    10.0   1_556     S
Er42     Er51    10.0   .     S
Er42     Er40    10.0   1_565     S
Er43     V34    10.0   1_556     S
Er43     Er52    10.0   .     S
Er43     Er44    10.0   .     S
Er43     Er45    10.0   1_545     S
Er44     V35    10.0   1_556     S
Er44     Er53    10.0   .     S
Er44     Er45    10.0   .     S
Er45     V36    10.0   1_556     S
Er45     Er54    10.0   .     S
Er45     Er43    10.0   1_565     S
Er46     Er49    10.0   .     S
Er46     Er52    10.0   1_455     S
Er47     Er50    10.0   .     S
Er47     Er53    10.0   1_455     S
Er48     Er51    10.0   .     S
Er48     Er54    10.0   1_455     S
Er49     Er52    10.0   .     S
Er50     Er53    10.0   .     S
Er51     Er54    10.0   .     S
Er52     Er46    10.0   1_655     S
Er53     Er47    10.0   1_655     S
Er54     Er48    10.0   1_655     S
