data_cdn
_audit_creation_date              2019-12-31
_audit_creation_method            'Pymatgen'
_symmetry_space_group_name_H-M    'P1'
_symmetry_Int_Tables_number       1
loop_
_symmetry_equiv_pos_as_xyz
  x,y,z
_cell_length_a                    30.0
_cell_length_b                    30.0
_cell_length_c                    79.9999
_cell_angle_alpha                 90.0
_cell_angle_beta                 90.0
_cell_angle_gamma                 90.0
loop_
_atom_site_label
_atom_site_type_symbol
_atom_site_fract_x
_atom_site_fract_y
_atom_site_fract_z
Er1     Er     0.0   0.0   0.6875
Er2     Er     0.0   0.3333   0.6875
Er3     Er     0.0   0.6667   0.6875
Er4     Er     0.3333   0.0   0.6875
Er5     Er     0.3333   0.3333   0.6875
Er6     Er     0.3333   0.6667   0.6875
Er7     Er     0.6667   0.0   0.6875
Er8     Er     0.6667   0.3333   0.6875
Er9     Er     0.6667   0.6667   0.6875
Er10     Er     0.0   0.0   0.8125
Er11     Er     0.0   0.3333   0.8125
Er12     Er     0.0   0.6667   0.8125
Er13     Er     0.3333   0.0   0.8125
Er14     Er     0.3333   0.3333   0.8125
Er15     Er     0.3333   0.6667   0.8125
Er16     Er     0.6667   0.0   0.8125
Er17     Er     0.6667   0.3333   0.8125
Er18     Er     0.6667   0.6667   0.8125
Er19     Er     0.0   0.0   0.3125
Er20     Er     0.0   0.3333   0.3125
Er21     Er     0.0   0.6667   0.3125
Er22     Er     0.3333   0.0   0.3125
Er23     Er     0.3333   0.3333   0.3125
Er24     Er     0.3333   0.6667   0.3125
Er25     Er     0.6667   0.0   0.3125
Er26     Er     0.6667   0.3333   0.3125
Er27     Er     0.6667   0.6667   0.3125
V28     V     0.0   0.0   0.4375
V29     V     0.0   0.3333   0.4375
V30     V     0.0   0.6667   0.4375
V31     V     0.3333   0.0   0.4375
V32     V     0.3333   0.3333   0.4375
V33     V     0.3333   0.6667   0.4375
V34     V     0.6667   0.0   0.4375
V35     V     0.6667   0.3333   0.4375
V36     V     0.6667   0.6667   0.4375
V37     V     0.0   0.0   0.0625
V38     V     0.0   0.3333   0.0625
V39     V     0.0   0.6667   0.0625
V40     V     0.3333   0.0   0.0625
V41     V     0.3333   0.3333   0.0625
V42     V     0.3333   0.6667   0.0625
V43     V     0.6667   0.0   0.0625
V44     V     0.6667   0.3333   0.0625
V45     V     0.6667   0.6667   0.0625
Er46     Er     0.0   0.0   0.1875
Er47     Er     0.0   0.3333   0.1875
Er48     Er     0.0   0.6667   0.1875
Er49     Er     0.3333   0.0   0.1875
Er50     Er     0.3333   0.3333   0.1875
Er51     Er     0.3333   0.6667   0.1875
Er52     Er     0.6667   0.0   0.1875
Er53     Er     0.6667   0.3333   0.1875
Er54     Er     0.6667   0.6667   0.1875
V55     V     0.0   0.0   0.9375
V56     V     0.0   0.3333   0.9375
V57     V     0.0   0.6667   0.9375
V58     V     0.3333   0.0   0.9375
V59     V     0.3333   0.3333   0.9375
V60     V     0.3333   0.6667   0.9375
V61     V     0.6667   0.0   0.9375
V62     V     0.6667   0.3333   0.9375
V63     V     0.6667   0.6667   0.9375
V64     V     0.0   0.0   0.5625
V65     V     0.0   0.3333   0.5625
V66     V     0.0   0.6667   0.5625
V67     V     0.3333   0.0   0.5625
V68     V     0.3333   0.3333   0.5625
V69     V     0.3333   0.6667   0.5625
V70     V     0.6667   0.0   0.5625
V71     V     0.6667   0.3333   0.5625
V72     V     0.6667   0.6667   0.5625
loop_
_geom_bond_atom_site_label_1
_geom_bond_atom_site_label_2
_geom_bond_distance
_geom_bond_site_symmetry_2
_ccdc_geom_bond_type
Er1     V64    10.0   .     S
Er1     Er10    10.0   .     S
Er1     Er2    10.0   .     S
Er1     Er3    10.0   1_545     S
Er2     V65    10.0   .     S
Er2     Er11    10.0   .     S
Er2     Er3    10.0   .     S
Er3     V66    10.0   .     S
Er3     Er12    10.0   .     S
Er3     Er1    10.0   1_565     S
Er4     V67    10.0   .     S
Er4     Er13    10.0   .     S
Er4     Er5    10.0   .     S
Er4     Er6    10.0   1_545     S
Er5     V68    10.0   .     S
Er5     Er14    10.0   .     S
Er5     Er6    10.0   .     S
Er6     V69    10.0   .     S
Er6     Er15    10.0   .     S
Er6     Er4    10.0   1_565     S
Er7     V70    10.0   .     S
Er7     Er16    10.0   .     S
Er7     Er8    10.0   .     S
Er7     Er9    10.0   1_545     S
Er8     V71    10.0   .     S
Er8     Er17    10.0   .     S
Er8     Er9    10.0   .     S
Er9     V72    10.0   .     S
Er9     Er18    10.0   .     S
Er9     Er7    10.0   1_565     S
Er10     V55    10.0   .     S
Er10     Er13    10.0   .     S
Er10     Er16    10.0   1_455     S
Er11     V56    10.0   .     S
Er11     Er14    10.0   .     S
Er11     Er17    10.0   1_455     S
Er12     V57    10.0   .     S
Er12     Er15    10.0   .     S
Er12     Er18    10.0   1_455     S
Er13     V58    10.0   .     S
Er13     Er16    10.0   .     S
Er14     V59    10.0   .     S
Er14     Er17    10.0   .     S
Er15     V60    10.0   .     S
Er15     Er18    10.0   .     S
Er16     V61    10.0   .     S
Er16     Er10    10.0   1_655     S
Er17     V62    10.0   .     S
Er17     Er11    10.0   1_655     S
Er18     V63    10.0   .     S
Er18     Er12    10.0   1_655     S
Er19     V28    10.0   .     S
Er19     Er46    10.0   .     S
Er19     Er20    10.0   .     S
Er19     Er21    10.0   1_545     S
Er20     V29    10.0   .     S
Er20     Er47    10.0   .     S
Er20     Er21    10.0   .     S
Er21     V30    10.0   .     S
Er21     Er48    10.0   .     S
Er21     Er19    10.0   1_565     S
Er22     V31    10.0   .     S
Er22     Er49    10.0   .     S
Er22     Er23    10.0   .     S
Er22     Er24    10.0   1_545     S
Er23     V32    10.0   .     S
Er23     Er50    10.0   .     S
Er23     Er24    10.0   .     S
Er24     V33    10.0   .     S
Er24     Er51    10.0   .     S
Er24     Er22    10.0   1_565     S
Er25     V34    10.0   .     S
Er25     Er52    10.0   .     S
Er25     Er26    10.0   .     S
Er25     Er27    10.0   1_545     S
Er26     V35    10.0   .     S
Er26     Er53    10.0   .     S
Er26     Er27    10.0   .     S
Er27     V36    10.0   .     S
Er27     Er54    10.0   .     S
Er27     Er25    10.0   1_565     S
V28     V64    10.0   .     S
V28     V29    10.0   .     S
V28     V30    10.0   1_545     S
V29     V65    10.0   .     S
V29     V30    10.0   .     S
V30     V66    10.0   .     S
V30     V28    10.0   1_565     S
V31     V67    10.0   .     S
V31     V32    10.0   .     S
V31     V33    10.0   1_545     S
V32     V68    10.0   .     S
V32     V33    10.0   .     S
V33     V69    10.0   .     S
V33     V31    10.0   1_565     S
V34     V70    10.0   .     S
V34     V35    10.0   .     S
V34     V36    10.0   1_545     S
V35     V71    10.0   .     S
V35     V36    10.0   .     S
V36     V72    10.0   .     S
V36     V34    10.0   1_565     S
V37     Er46    10.0   .     S
V37     V55    10.0   1_554     S
V37     V40    10.0   .     S
V37     V43    10.0   1_455     S
V38     Er47    10.0   .     S
V38     V56    10.0   1_554     S
V38     V41    10.0   .     S
V38     V44    10.0   1_455     S
V39     Er48    10.0   .     S
V39     V57    10.0   1_554     S
V39     V42    10.0   .     S
V39     V45    10.0   1_455     S
V40     Er49    10.0   .     S
V40     V58    10.0   1_554     S
V40     V43    10.0   .     S
V41     Er50    10.0   .     S
V41     V59    10.0   1_554     S
V41     V44    10.0   .     S
V42     Er51    10.0   .     S
V42     V60    10.0   1_554     S
V42     V45    10.0   .     S
V43     Er52    10.0   .     S
V43     V61    10.0   1_554     S
V43     V37    10.0   1_655     S
V44     Er53    10.0   .     S
V44     V62    10.0   1_554     S
V44     V38    10.0   1_655     S
V45     Er54    10.0   .     S
V45     V63    10.0   1_554     S
V45     V39    10.0   1_655     S
Er46     Er49    10.0   .     S
Er46     Er52    10.0   1_455     S
Er47     Er50    10.0   .     S
Er47     Er53    10.0   1_455     S
Er48     Er51    10.0   .     S
Er48     Er54    10.0   1_455     S
Er49     Er52    10.0   .     S
Er50     Er53    10.0   .     S
Er51     Er54    10.0   .     S
Er52     Er46    10.0   1_655     S
Er53     Er47    10.0   1_655     S
Er54     Er48    10.0   1_655     S
V55     V37    10.0   1_556     S
V55     V58    10.0   .     S
V55     V61    10.0   1_455     S
V56     V38    10.0   1_556     S
V56     V59    10.0   .     S
V56     V62    10.0   1_455     S
V57     V39    10.0   1_556     S
V57     V60    10.0   .     S
V57     V63    10.0   1_455     S
V58     V40    10.0   1_556     S
V58     V61    10.0   .     S
V59     V41    10.0   1_556     S
V59     V62    10.0   .     S
V60     V42    10.0   1_556     S
V60     V63    10.0   .     S
V61     V43    10.0   1_556     S
V61     V55    10.0   1_655     S
V62     V44    10.0   1_556     S
V62     V56    10.0   1_655     S
V63     V45    10.0   1_556     S
V63     V57    10.0   1_655     S
V64     V65    10.0   .     S
V64     V66    10.0   1_545     S
V65     V66    10.0   .     S
V66     V64    10.0   1_565     S
V67     V68    10.0   .     S
V67     V69    10.0   1_545     S
V68     V69    10.0   .     S
V69     V67    10.0   1_565     S
V70     V71    10.0   .     S
V70     V72    10.0   1_545     S
V71     V72    10.0   .     S
V72     V70    10.0   1_565     S
