data_cdq
_audit_creation_date              2019-12-31
_audit_creation_method            'Pymatgen'
_symmetry_space_group_name_H-M    'P1'
_symmetry_Int_Tables_number       1
loop_
_symmetry_equiv_pos_as_xyz
  x,y,z
_cell_length_a                    30.0
_cell_length_b                    30.0
_cell_length_c                    34.6411
_cell_angle_alpha                 90.0
_cell_angle_beta                 90.0
_cell_angle_gamma                 90.0
loop_
_atom_site_label
_atom_site_type_symbol
_atom_site_fract_x
_atom_site_fract_y
_atom_site_fract_z
Er1     Er     0.0   0.1667   0.5
Er2     Er     0.0   0.5   0.5
Er3     Er     0.0   0.8333   0.5
Er4     Er     0.3333   0.1667   0.5
Er5     Er     0.3333   0.5   0.5
Er6     Er     0.3333   0.8333   0.5
Er7     Er     0.6667   0.1667   0.5
Er8     Er     0.6667   0.5   0.5
Er9     Er     0.6667   0.8333   0.5
Er10     Er     0.1667   0.0   0.0
Er11     Er     0.1667   0.3333   0.0
Er12     Er     0.1667   0.6667   0.0
Er13     Er     0.5   0.0   0.0
Er14     Er     0.5   0.3333   0.0
Er15     Er     0.5   0.6667   0.0
Er16     Er     0.8333   0.0   0.0
Er17     Er     0.8333   0.3333   0.0
Er18     Er     0.8333   0.6667   0.0
V19     V     0.0   0.0   0.25
V20     V     0.0   0.3333   0.25
V21     V     0.0   0.6667   0.25
V22     V     0.3333   0.0   0.25
V23     V     0.3333   0.3333   0.25
V24     V     0.3333   0.6667   0.25
V25     V     0.6667   0.0   0.25
V26     V     0.6667   0.3333   0.25
V27     V     0.6667   0.6667   0.25
V28     V     0.0   0.0   0.75
V29     V     0.0   0.3333   0.75
V30     V     0.0   0.6667   0.75
V31     V     0.3333   0.0   0.75
V32     V     0.3333   0.3333   0.75
V33     V     0.3333   0.6667   0.75
V34     V     0.6667   0.0   0.75
V35     V     0.6667   0.3333   0.75
V36     V     0.6667   0.6667   0.75
loop_
_geom_bond_atom_site_label_1
_geom_bond_atom_site_label_2
_geom_bond_distance
_geom_bond_site_symmetry_2
_ccdc_geom_bond_type
Er1     V19    10.0   .     S
Er1     V20    10.0   .     S
Er1     Er4    10.0   .     S
Er1     Er7    10.0   1_455     S
Er1     V28    10.0   .     S
Er1     V29    10.0   .     S
Er2     V20    10.0   .     S
Er2     V21    10.0   .     S
Er2     Er5    10.0   .     S
Er2     Er8    10.0   1_455     S
Er2     V29    10.0   .     S
Er2     V30    10.0   .     S
Er3     V21    10.0   .     S
Er3     V19    10.0   1_565     S
Er3     Er6    10.0   .     S
Er3     Er9    10.0   1_455     S
Er3     V30    10.0   .     S
Er3     V28    10.0   1_565     S
Er4     V22    10.0   .     S
Er4     V23    10.0   .     S
Er4     Er7    10.0   .     S
Er4     V31    10.0   .     S
Er4     V32    10.0   .     S
Er5     V23    10.0   .     S
Er5     V24    10.0   .     S
Er5     Er8    10.0   .     S
Er5     V32    10.0   .     S
Er5     V33    10.0   .     S
Er6     V24    10.0   .     S
Er6     V22    10.0   1_565     S
Er6     Er9    10.0   .     S
Er6     V33    10.0   .     S
Er6     V31    10.0   1_565     S
Er7     V25    10.0   .     S
Er7     V26    10.0   .     S
Er7     Er1    10.0   1_655     S
Er7     V34    10.0   .     S
Er7     V35    10.0   .     S
Er8     V26    10.0   .     S
Er8     V27    10.0   .     S
Er8     Er2    10.0   1_655     S
Er8     V35    10.0   .     S
Er8     V36    10.0   .     S
Er9     V27    10.0   .     S
Er9     V25    10.0   1_565     S
Er9     Er3    10.0   1_655     S
Er9     V36    10.0   .     S
Er9     V34    10.0   1_565     S
Er10     V28    10.0   1_554     S
Er10     V31    10.0   1_554     S
Er10     Er11    10.0   .     S
Er10     Er12    10.0   1_545     S
Er10     V19    10.0   .     S
Er10     V22    10.0   .     S
Er11     V29    10.0   1_554     S
Er11     V32    10.0   1_554     S
Er11     Er12    10.0   .     S
Er11     V20    10.0   .     S
Er11     V23    10.0   .     S
Er12     V30    10.0   1_554     S
Er12     V33    10.0   1_554     S
Er12     Er10    10.0   1_565     S
Er12     V21    10.0   .     S
Er12     V24    10.0   .     S
Er13     V31    10.0   1_554     S
Er13     V34    10.0   1_554     S
Er13     Er14    10.0   .     S
Er13     Er15    10.0   1_545     S
Er13     V22    10.0   .     S
Er13     V25    10.0   .     S
Er14     V32    10.0   1_554     S
Er14     V35    10.0   1_554     S
Er14     Er15    10.0   .     S
Er14     V23    10.0   .     S
Er14     V26    10.0   .     S
Er15     V33    10.0   1_554     S
Er15     V36    10.0   1_554     S
Er15     Er13    10.0   1_565     S
Er15     V24    10.0   .     S
Er15     V27    10.0   .     S
Er16     V34    10.0   1_554     S
Er16     V28    10.0   1_654     S
Er16     Er17    10.0   .     S
Er16     Er18    10.0   1_545     S
Er16     V25    10.0   .     S
Er16     V19    10.0   1_655     S
Er17     V35    10.0   1_554     S
Er17     V29    10.0   1_654     S
Er17     Er18    10.0   .     S
Er17     V26    10.0   .     S
Er17     V20    10.0   1_655     S
Er18     V36    10.0   1_554     S
Er18     V30    10.0   1_654     S
Er18     Er16    10.0   1_565     S
Er18     V27    10.0   .     S
Er18     V21    10.0   1_655     S
V19     Er3    10.0   1_545     S
V19     Er16    10.0   1_455     S
V20     Er17    10.0   1_455     S
V21     Er18    10.0   1_455     S
V22     Er6    10.0   1_545     S
V25     Er9    10.0   1_545     S
V28     Er3    10.0   1_545     S
V28     Er10    10.0   1_556     S
V28     Er16    10.0   1_456     S
V29     Er11    10.0   1_556     S
V29     Er17    10.0   1_456     S
V30     Er12    10.0   1_556     S
V30     Er18    10.0   1_456     S
V31     Er6    10.0   1_545     S
V31     Er13    10.0   1_556     S
V31     Er10    10.0   1_556     S
V32     Er14    10.0   1_556     S
V32     Er11    10.0   1_556     S
V33     Er15    10.0   1_556     S
V33     Er12    10.0   1_556     S
V34     Er9    10.0   1_545     S
V34     Er16    10.0   1_556     S
V34     Er13    10.0   1_556     S
V35     Er17    10.0   1_556     S
V35     Er14    10.0   1_556     S
V36     Er18    10.0   1_556     S
V36     Er15    10.0   1_556     S
