data_cds-f
_audit_creation_date              2019-12-31
_audit_creation_method            'Pymatgen'
_symmetry_space_group_name_H-M    'P1'
_symmetry_Int_Tables_number       1
loop_
_symmetry_equiv_pos_as_xyz
  x,y,z
_cell_length_a                    40.0
_cell_length_b                    40.0
_cell_length_c                    39.9999
_cell_angle_alpha                 90.0
_cell_angle_beta                 90.0
_cell_angle_gamma                 90.0
loop_
_atom_site_label
_atom_site_type_symbol
_atom_site_fract_x
_atom_site_fract_y
_atom_site_fract_z
V1     V     0.125   0.375   0.875
V2     V     0.125   0.875   0.875
V3     V     0.625   0.375   0.875
V4     V     0.625   0.875   0.875
V5     V     0.125   0.375   0.125
V6     V     0.125   0.875   0.125
V7     V     0.625   0.375   0.125
V8     V     0.625   0.875   0.125
V9     V     0.125   0.375   0.375
V10     V     0.125   0.875   0.375
V11     V     0.625   0.375   0.375
V12     V     0.625   0.875   0.375
V13     V     0.125   0.375   0.625
V14     V     0.125   0.875   0.625
V15     V     0.625   0.375   0.625
V16     V     0.625   0.875   0.625
V17     V     0.375   0.375   0.875
V18     V     0.375   0.875   0.875
V19     V     0.875   0.375   0.875
V20     V     0.875   0.875   0.875
V21     V     0.375   0.375   0.625
V22     V     0.375   0.875   0.625
V23     V     0.875   0.375   0.625
V24     V     0.875   0.875   0.625
V25     V     0.375   0.375   0.375
V26     V     0.375   0.875   0.375
V27     V     0.875   0.375   0.375
V28     V     0.875   0.875   0.375
V29     V     0.375   0.375   0.125
V30     V     0.375   0.875   0.125
V31     V     0.875   0.375   0.125
V32     V     0.875   0.875   0.125
V33     V     0.375   0.125   0.875
V34     V     0.375   0.625   0.875
V35     V     0.875   0.125   0.875
V36     V     0.875   0.625   0.875
V37     V     0.375   0.125   0.125
V38     V     0.375   0.625   0.125
V39     V     0.875   0.125   0.125
V40     V     0.875   0.625   0.125
V41     V     0.375   0.125   0.375
V42     V     0.375   0.625   0.375
V43     V     0.875   0.125   0.375
V44     V     0.875   0.625   0.375
V45     V     0.375   0.125   0.625
V46     V     0.375   0.625   0.625
V47     V     0.875   0.125   0.625
V48     V     0.875   0.625   0.625
V49     V     0.125   0.125   0.875
V50     V     0.125   0.625   0.875
V51     V     0.625   0.125   0.875
V52     V     0.625   0.625   0.875
V53     V     0.125   0.125   0.125
V54     V     0.125   0.625   0.125
V55     V     0.625   0.125   0.125
V56     V     0.625   0.625   0.125
V57     V     0.125   0.125   0.375
V58     V     0.125   0.625   0.375
V59     V     0.625   0.125   0.375
V60     V     0.625   0.625   0.375
V61     V     0.125   0.125   0.625
V62     V     0.125   0.625   0.625
V63     V     0.625   0.125   0.625
V64     V     0.625   0.625   0.625
loop_
_geom_bond_atom_site_label_1
_geom_bond_atom_site_label_2
_geom_bond_distance
_geom_bond_site_symmetry_2
_ccdc_geom_bond_type
V1     V13    10.0   .     S
V1     V5    10.0   1_556     S
V1     V19    10.0   1_455     S
V1     V49    10.0   .     S
V1     V17    10.0   .     S
V2     V14    10.0   .     S
V2     V6    10.0   1_556     S
V2     V20    10.0   1_455     S
V2     V50    10.0   .     S
V2     V18    10.0   .     S
V3     V15    10.0   .     S
V3     V7    10.0   1_556     S
V3     V17    10.0   .     S
V3     V51    10.0   .     S
V3     V19    10.0   .     S
V4     V16    10.0   .     S
V4     V8    10.0   1_556     S
V4     V18    10.0   .     S
V4     V52    10.0   .     S
V4     V20    10.0   .     S
V5     V1    10.0   1_554     S
V5     V9    10.0   .     S
V5     V31    10.0   1_455     S
V5     V53    10.0   .     S
V5     V29    10.0   .     S
V6     V2    10.0   1_554     S
V6     V10    10.0   .     S
V6     V32    10.0   1_455     S
V6     V54    10.0   .     S
V6     V30    10.0   .     S
V7     V3    10.0   1_554     S
V7     V11    10.0   .     S
V7     V29    10.0   .     S
V7     V55    10.0   .     S
V7     V31    10.0   .     S
V8     V4    10.0   1_554     S
V8     V12    10.0   .     S
V8     V30    10.0   .     S
V8     V56    10.0   .     S
V8     V32    10.0   .     S
V9     V13    10.0   .     S
V9     V58    10.0   .     S
V9     V25    10.0   .     S
V9     V57    10.0   .     S
V10     V14    10.0   .     S
V10     V57    10.0   1_565     S
V10     V26    10.0   .     S
V10     V58    10.0   .     S
V11     V15    10.0   .     S
V11     V60    10.0   .     S
V11     V27    10.0   .     S
V11     V59    10.0   .     S
V12     V16    10.0   .     S
V12     V59    10.0   1_565     S
V12     V28    10.0   .     S
V12     V60    10.0   .     S
V13     V62    10.0   .     S
V13     V21    10.0   .     S
V13     V61    10.0   .     S
V14     V61    10.0   1_565     S
V14     V22    10.0   .     S
V14     V62    10.0   .     S
V15     V64    10.0   .     S
V15     V23    10.0   .     S
V15     V63    10.0   .     S
V16     V63    10.0   1_565     S
V16     V24    10.0   .     S
V16     V64    10.0   .     S
V17     V21    10.0   .     S
V17     V29    10.0   1_556     S
V17     V33    10.0   .     S
V18     V22    10.0   .     S
V18     V30    10.0   1_556     S
V18     V34    10.0   .     S
V19     V23    10.0   .     S
V19     V31    10.0   1_556     S
V19     V1    10.0   1_655     S
V19     V35    10.0   .     S
V20     V24    10.0   .     S
V20     V32    10.0   1_556     S
V20     V2    10.0   1_655     S
V20     V36    10.0   .     S
V21     V25    10.0   .     S
V21     V46    10.0   .     S
V21     V45    10.0   .     S
V22     V26    10.0   .     S
V22     V45    10.0   1_565     S
V22     V46    10.0   .     S
V23     V27    10.0   .     S
V23     V48    10.0   .     S
V23     V47    10.0   .     S
V24     V28    10.0   .     S
V24     V47    10.0   1_565     S
V24     V48    10.0   .     S
V25     V29    10.0   .     S
V25     V42    10.0   .     S
V25     V41    10.0   .     S
V26     V30    10.0   .     S
V26     V41    10.0   1_565     S
V26     V42    10.0   .     S
V27     V31    10.0   .     S
V27     V44    10.0   .     S
V27     V43    10.0   .     S
V28     V32    10.0   .     S
V28     V43    10.0   1_565     S
V28     V44    10.0   .     S
V29     V17    10.0   1_554     S
V29     V37    10.0   .     S
V30     V18    10.0   1_554     S
V30     V38    10.0   .     S
V31     V19    10.0   1_554     S
V31     V5    10.0   1_655     S
V31     V39    10.0   .     S
V32     V20    10.0   1_554     S
V32     V6    10.0   1_655     S
V32     V40    10.0   .     S
V33     V45    10.0   .     S
V33     V37    10.0   1_556     S
V33     V51    10.0   .     S
V33     V49    10.0   .     S
V34     V46    10.0   .     S
V34     V38    10.0   1_556     S
V34     V52    10.0   .     S
V34     V50    10.0   .     S
V35     V47    10.0   .     S
V35     V39    10.0   1_556     S
V35     V49    10.0   1_655     S
V35     V51    10.0   .     S
V36     V48    10.0   .     S
V36     V40    10.0   1_556     S
V36     V50    10.0   1_655     S
V36     V52    10.0   .     S
V37     V33    10.0   1_554     S
V37     V41    10.0   .     S
V37     V55    10.0   .     S
V37     V53    10.0   .     S
V38     V34    10.0   1_554     S
V38     V42    10.0   .     S
V38     V56    10.0   .     S
V38     V54    10.0   .     S
V39     V35    10.0   1_554     S
V39     V43    10.0   .     S
V39     V53    10.0   1_655     S
V39     V55    10.0   .     S
V40     V36    10.0   1_554     S
V40     V44    10.0   .     S
V40     V54    10.0   1_655     S
V40     V56    10.0   .     S
V41     V45    10.0   .     S
V41     V26    10.0   1_545     S
V41     V57    10.0   .     S
V42     V46    10.0   .     S
V42     V58    10.0   .     S
V43     V47    10.0   .     S
V43     V28    10.0   1_545     S
V43     V59    10.0   .     S
V44     V48    10.0   .     S
V44     V60    10.0   .     S
V45     V22    10.0   1_545     S
V45     V61    10.0   .     S
V46     V62    10.0   .     S
V47     V24    10.0   1_545     S
V47     V63    10.0   .     S
V48     V64    10.0   .     S
V49     V61    10.0   .     S
V49     V53    10.0   1_556     S
V49     V35    10.0   1_455     S
V50     V62    10.0   .     S
V50     V54    10.0   1_556     S
V50     V36    10.0   1_455     S
V51     V63    10.0   .     S
V51     V55    10.0   1_556     S
V52     V64    10.0   .     S
V52     V56    10.0   1_556     S
V53     V49    10.0   1_554     S
V53     V57    10.0   .     S
V53     V39    10.0   1_455     S
V54     V50    10.0   1_554     S
V54     V58    10.0   .     S
V54     V40    10.0   1_455     S
V55     V51    10.0   1_554     S
V55     V59    10.0   .     S
V56     V52    10.0   1_554     S
V56     V60    10.0   .     S
V57     V61    10.0   .     S
V57     V10    10.0   1_545     S
V58     V62    10.0   .     S
V59     V63    10.0   .     S
V59     V12    10.0   1_545     S
V60     V64    10.0   .     S
V61     V14    10.0   1_545     S
V63     V16    10.0   1_545     S
