data_cdz-e
_audit_creation_date              2019-12-31
_audit_creation_method            'Pymatgen'
_symmetry_space_group_name_H-M    'P1'
_symmetry_Int_Tables_number       1
loop_
_symmetry_equiv_pos_as_xyz
  x,y,z
_cell_length_a                    35.5502
_cell_length_b                    30.4562
_cell_length_c                    35.0987
_cell_angle_alpha                 90.0
_cell_angle_beta                 90.0
_cell_angle_gamma                 90.0
loop_
_atom_site_label
_atom_site_type_symbol
_atom_site_fract_x
_atom_site_fract_y
_atom_site_fract_z
V1     V     0.0   0.0   0.8694
V2     V     0.0   0.5   0.8694
V3     V     0.5   0.0   0.8694
V4     V     0.5   0.5   0.8694
V5     V     0.0   0.0   0.1306
V6     V     0.0   0.5   0.1306
V7     V     0.5   0.0   0.1306
V8     V     0.5   0.5   0.1306
Ti9     Ti     0.0   0.25   0.3153
Ti10     Ti     0.0   0.75   0.3153
Ti11     Ti     0.5   0.25   0.3153
Ti12     Ti     0.5   0.75   0.3153
Er13     Er     0.0   0.0   0.5
Er14     Er     0.0   0.5   0.5
Er15     Er     0.5   0.0   0.5
Er16     Er     0.5   0.5   0.5
Ti17     Ti     0.0   0.25   0.6847
Ti18     Ti     0.0   0.75   0.6847
Ti19     Ti     0.5   0.25   0.6847
Ti20     Ti     0.5   0.75   0.6847
Ce21     Ce     0.25   0.0   0.0
Ce22     Ce     0.25   0.5   0.0
Ce23     Ce     0.75   0.0   0.0
Ce24     Ce     0.75   0.5   0.0
loop_
_geom_bond_atom_site_label_1
_geom_bond_atom_site_label_2
_geom_bond_distance
_geom_bond_site_symmetry_2
_ccdc_geom_bond_type
V1     Ce21    10.0   1_556     S
V1     Ce23    10.0   1_456     S
V1     Ti18    10.0   1_545     S
V1     Ti17    10.0   .     S
V2     Ce22    10.0   1_556     S
V2     Ce24    10.0   1_456     S
V2     Ti17    10.0   .     S
V2     Ti18    10.0   .     S
V3     Ce23    10.0   1_556     S
V3     Ce21    10.0   1_556     S
V3     Ti20    10.0   1_545     S
V3     Ti19    10.0   .     S
V4     Ce24    10.0   1_556     S
V4     Ce22    10.0   1_556     S
V4     Ti19    10.0   .     S
V4     Ti20    10.0   .     S
V5     Ce21    10.0   .     S
V5     Ce23    10.0   1_455     S
V5     Ti10    10.0   1_545     S
V5     Ti9    10.0   .     S
V6     Ce22    10.0   .     S
V6     Ce24    10.0   1_455     S
V6     Ti9    10.0   .     S
V6     Ti10    10.0   .     S
V7     Ce23    10.0   .     S
V7     Ce21    10.0   .     S
V7     Ti12    10.0   1_545     S
V7     Ti11    10.0   .     S
V8     Ce24    10.0   .     S
V8     Ce22    10.0   .     S
V8     Ti11    10.0   .     S
V8     Ti12    10.0   .     S
Ti9     Er14    10.0   .     S
Ti9     Er13    10.0   .     S
Ti10     V5    10.0   1_565     S
Ti10     Er13    10.0   1_565     S
Ti10     Er14    10.0   .     S
Ti11     Er16    10.0   .     S
Ti11     Er15    10.0   .     S
Ti12     V7    10.0   1_565     S
Ti12     Er15    10.0   1_565     S
Ti12     Er16    10.0   .     S
Er13     Ti18    10.0   1_545     S
Er13     Ti17    10.0   .     S
Er13     Ti10    10.0   1_545     S
Er14     Ti17    10.0   .     S
Er14     Ti18    10.0   .     S
Er15     Ti20    10.0   1_545     S
Er15     Ti19    10.0   .     S
Er15     Ti12    10.0   1_545     S
Er16     Ti19    10.0   .     S
Er16     Ti20    10.0   .     S
Ti18     V1    10.0   1_565     S
Ti18     Er13    10.0   1_565     S
Ti20     V3    10.0   1_565     S
Ti20     Er15    10.0   1_565     S
Ce21     V1    10.0   1_554     S
Ce21     V3    10.0   1_554     S
Ce22     V2    10.0   1_554     S
Ce22     V4    10.0   1_554     S
Ce23     V3    10.0   1_554     S
Ce23     V5    10.0   1_655     S
Ce23     V1    10.0   1_654     S
Ce24     V4    10.0   1_554     S
Ce24     V6    10.0   1_655     S
Ce24     V2    10.0   1_654     S
