data_cec
_audit_creation_date              2019-12-31
_audit_creation_method            'Pymatgen'
_symmetry_space_group_name_H-M    'P1'
_symmetry_Int_Tables_number       1
loop_
_symmetry_equiv_pos_as_xyz
  x,y,z
_cell_length_a                    24.7602
_cell_length_b                    24.7602
_cell_length_c                    27.0124
_cell_angle_alpha                 90.0
_cell_angle_beta                 90.0
_cell_angle_gamma                 120.0
loop_
_atom_site_label
_atom_site_type_symbol
_atom_site_fract_x
_atom_site_fract_y
_atom_site_fract_z
V1     V     0.0   0.0   0.0
V2     V     0.0   0.0   0.5
Er3     Er     0.0   0.2975   0.25
Er4     Er     0.0   0.2975   0.75
Er5     Er     0.2975   0.0   0.25
Er6     Er     0.2975   0.0   0.75
Er7     Er     0.7025   0.0   0.25
Er8     Er     0.7025   0.0   0.75
Er9     Er     0.2975   0.2975   0.25
Er10     Er     0.2975   0.2975   0.75
Er11     Er     0.7025   0.7025   0.25
Er12     Er     0.7025   0.7025   0.75
Er13     Er     1.0   0.7025   0.25
Er14     Er     1.0   0.7025   0.75
loop_
_geom_bond_atom_site_label_1
_geom_bond_atom_site_label_2
_geom_bond_distance
_geom_bond_site_symmetry_2
_ccdc_geom_bond_type
V1     Er8    9.993   1_454     S
V1     Er12    9.993   1_444     S
V1     Er6    9.993   1_554     S
V1     Er10    9.993   1_554     S
V1     Er14    9.993   1_444     S
V1     Er4    9.993   1_554     S
V1     Er5    9.993   .     S
V1     Er9    9.993   .     S
V1     Er7    9.993   1_455     S
V1     Er11    9.993   1_445     S
V1     Er3    9.993   .     S
V1     Er13    9.993   1_445     S
V2     Er7    9.993   1_455     S
V2     Er11    9.993   1_445     S
V2     Er5    9.993   .     S
V2     Er9    9.993   .     S
V2     Er13    9.993   1_445     S
V2     Er3    9.993   .     S
V2     Er6    9.993   .     S
V2     Er10    9.993   .     S
V2     Er8    9.993   1_455     S
V2     Er12    9.993   1_445     S
V2     Er4    9.993   .     S
V2     Er14    9.993   1_445     S
Er3     Er13    10.03   1_455     S
Er4     V1    9.993   1_556     S
Er4     Er14    10.03   1_455     S
Er5     Er7    10.03   .     S
Er6     V1    9.993   1_556     S
Er6     Er8    10.03   .     S
Er7     V2    9.993   1_655     S
Er7     V1    9.993   1_655     S
Er8     V1    9.993   1_656     S
Er8     V2    9.993   1_655     S
Er9     Er11    10.03   .     S
Er10     V1    9.993   1_556     S
Er10     Er12    10.03   .     S
Er11     V2    9.993   1_665     S
Er11     V1    9.993   1_665     S
Er12     V1    9.993   1_666     S
Er12     V2    9.993   1_665     S
Er13     V2    9.993   1_665     S
Er13     V1    9.993   1_665     S
Er13     Er3    10.03   1_655     S
Er14     V1    9.993   1_666     S
Er14     V2    9.993   1_665     S
Er14     Er4    10.03   1_655     S
