data_ced
_audit_creation_date              2019-12-31
_audit_creation_method            'Pymatgen'
_symmetry_space_group_name_H-M    'P1'
_symmetry_Int_Tables_number       1
loop_
_symmetry_equiv_pos_as_xyz
  x,y,z
_cell_length_a                    36.048
_cell_length_b                    36.048
_cell_length_c                    37.3414
_cell_angle_alpha                 90.0
_cell_angle_beta                 90.0
_cell_angle_gamma                 120.0
loop_
_atom_site_label
_atom_site_type_symbol
_atom_site_fract_x
_atom_site_fract_y
_atom_site_fract_z
V1     V     0.25   0.25   0.1337
V2     V     0.25   0.25   0.6337
V3     V     0.25   0.75   0.1337
V4     V     0.25   0.75   0.6337
V5     V     0.75   0.25   0.1337
V6     V     0.75   0.25   0.6337
V7     V     0.75   0.75   0.1337
V8     V     0.75   0.75   0.6337
V9     V     0.25   0.25   0.3663
V10     V     0.25   0.25   0.8663
V11     V     0.25   0.75   0.3663
V12     V     0.25   0.75   0.8663
V13     V     0.75   0.25   0.3663
V14     V     0.75   0.25   0.8663
V15     V     0.75   0.75   0.3663
V16     V     0.75   0.75   0.8663
V17     V     0.25   0.0   0.1337
V18     V     0.25   0.0   0.6337
V19     V     0.25   0.5   0.1337
V20     V     0.25   0.5   0.6337
V21     V     0.75   0.0   0.1337
V22     V     0.75   0.0   0.6337
V23     V     0.75   0.5   0.1337
V24     V     0.75   0.5   0.6337
V25     V     0.25   0.0   0.3663
V26     V     0.25   0.0   0.8663
V27     V     0.25   0.5   0.3663
V28     V     0.25   0.5   0.8663
V29     V     0.75   0.0   0.3663
V30     V     0.75   0.0   0.8663
V31     V     0.75   0.5   0.3663
V32     V     0.75   0.5   0.8663
V33     V     0.0   0.25   0.1337
V34     V     0.0   0.25   0.6337
V35     V     0.0   0.75   0.1337
V36     V     0.0   0.75   0.6337
V37     V     0.5   0.25   0.1337
V38     V     0.5   0.25   0.6337
V39     V     0.5   0.75   0.1337
V40     V     0.5   0.75   0.6337
V41     V     0.0   0.25   0.3663
V42     V     0.0   0.25   0.8663
V43     V     0.0   0.75   0.3663
V44     V     0.0   0.75   0.8663
V45     V     0.5   0.25   0.3663
V46     V     0.5   0.25   0.8663
V47     V     0.5   0.75   0.3663
V48     V     0.5   0.75   0.8663
Er49     Er     0.0   0.0   0.25
Er50     Er     0.0   0.0   0.75
Er51     Er     0.0   0.5   0.25
Er52     Er     0.0   0.5   0.75
Er53     Er     0.5   0.0   0.25
Er54     Er     0.5   0.0   0.75
Er55     Er     0.5   0.5   0.25
Er56     Er     0.5   0.5   0.75
loop_
_geom_bond_atom_site_label_1
_geom_bond_atom_site_label_2
_geom_bond_distance
_geom_bond_site_symmetry_2
_ccdc_geom_bond_type
V1     V10    9.982   1_554     S
V1     Er49    10.004   .     S
V1     Er55    10.004   .     S
V2     V9    9.982   .     S
V2     Er50    10.004   .     S
V2     Er56    10.004   .     S
V3     V12    9.982   1_554     S
V3     Er51    10.004   .     S
V3     Er53    10.004   1_565     S
V4     V11    9.982   .     S
V4     Er52    10.004   .     S
V4     Er54    10.004   1_565     S
V5     V14    9.982   1_554     S
V5     Er53    10.004   .     S
V5     Er51    10.004   1_655     S
V6     V13    9.982   .     S
V6     Er54    10.004   .     S
V6     Er52    10.004   1_655     S
V7     V16    9.982   1_554     S
V7     Er55    10.004   .     S
V7     Er49    10.004   1_665     S
V8     V15    9.982   .     S
V8     Er56    10.004   .     S
V8     Er50    10.004   1_665     S
V9     Er49    10.004   .     S
V9     Er55    10.004   .     S
V10     V1    9.982   1_556     S
V10     Er50    10.004   .     S
V10     Er56    10.004   .     S
V11     Er51    10.004   .     S
V11     Er53    10.004   1_565     S
V12     V3    9.982   1_556     S
V12     Er52    10.004   .     S
V12     Er54    10.004   1_565     S
V13     Er53    10.004   .     S
V13     Er51    10.004   1_655     S
V14     V5    9.982   1_556     S
V14     Er54    10.004   .     S
V14     Er52    10.004   1_655     S
V15     Er55    10.004   .     S
V15     Er49    10.004   1_665     S
V16     V7    9.982   1_556     S
V16     Er56    10.004   .     S
V16     Er50    10.004   1_665     S
V17     V26    9.982   1_554     S
V17     Er49    10.004   .     S
V17     Er53    10.004   .     S
V18     V25    9.982   .     S
V18     Er50    10.004   .     S
V18     Er54    10.004   .     S
V19     V28    9.982   1_554     S
V19     Er51    10.004   .     S
V19     Er55    10.004   .     S
V20     V27    9.982   .     S
V20     Er52    10.004   .     S
V20     Er56    10.004   .     S
V21     V30    9.982   1_554     S
V21     Er53    10.004   .     S
V21     Er49    10.004   1_655     S
V22     V29    9.982   .     S
V22     Er54    10.004   .     S
V22     Er50    10.004   1_655     S
V23     V32    9.982   1_554     S
V23     Er55    10.004   .     S
V23     Er51    10.004   1_655     S
V24     V31    9.982   .     S
V24     Er56    10.004   .     S
V24     Er52    10.004   1_655     S
V25     Er49    10.004   .     S
V25     Er53    10.004   .     S
V26     V17    9.982   1_556     S
V26     Er50    10.004   .     S
V26     Er54    10.004   .     S
V27     Er51    10.004   .     S
V27     Er55    10.004   .     S
V28     V19    9.982   1_556     S
V28     Er52    10.004   .     S
V28     Er56    10.004   .     S
V29     Er53    10.004   .     S
V29     Er49    10.004   1_655     S
V30     V21    9.982   1_556     S
V30     Er54    10.004   .     S
V30     Er50    10.004   1_655     S
V31     Er55    10.004   .     S
V31     Er51    10.004   1_655     S
V32     V23    9.982   1_556     S
V32     Er56    10.004   .     S
V32     Er52    10.004   1_655     S
V33     V42    9.982   1_554     S
V33     Er51    10.004   .     S
V33     Er49    10.004   .     S
V34     V41    9.982   .     S
V34     Er52    10.004   .     S
V34     Er50    10.004   .     S
V35     V44    9.982   1_554     S
V35     Er49    10.004   1_565     S
V35     Er51    10.004   .     S
V36     V43    9.982   .     S
V36     Er50    10.004   1_565     S
V36     Er52    10.004   .     S
V37     V46    9.982   1_554     S
V37     Er55    10.004   .     S
V37     Er53    10.004   .     S
V38     V45    9.982   .     S
V38     Er56    10.004   .     S
V38     Er54    10.004   .     S
V39     V48    9.982   1_554     S
V39     Er53    10.004   1_565     S
V39     Er55    10.004   .     S
V40     V47    9.982   .     S
V40     Er54    10.004   1_565     S
V40     Er56    10.004   .     S
V41     Er51    10.004   .     S
V41     Er49    10.004   .     S
V42     V33    9.982   1_556     S
V42     Er52    10.004   .     S
V42     Er50    10.004   .     S
V43     Er49    10.004   1_565     S
V43     Er51    10.004   .     S
V44     V35    9.982   1_556     S
V44     Er50    10.004   1_565     S
V44     Er52    10.004   .     S
V45     Er55    10.004   .     S
V45     Er53    10.004   .     S
V46     V37    9.982   1_556     S
V46     Er56    10.004   .     S
V46     Er54    10.004   .     S
V47     Er53    10.004   1_565     S
V47     Er55    10.004   .     S
V48     V39    9.982   1_556     S
V48     Er54    10.004   1_565     S
V48     Er56    10.004   .     S
Er49     V35    10.004   1_545     S
Er49     V43    10.004   1_545     S
Er49     V7    10.004   1_445     S
Er49     V15    10.004   1_445     S
Er49     V21    10.004   1_455     S
Er49     V29    10.004   1_455     S
Er50     V36    10.004   1_545     S
Er50     V44    10.004   1_545     S
Er50     V8    10.004   1_445     S
Er50     V16    10.004   1_445     S
Er50     V22    10.004   1_455     S
Er50     V30    10.004   1_455     S
Er51     V5    10.004   1_455     S
Er51     V13    10.004   1_455     S
Er51     V23    10.004   1_455     S
Er51     V31    10.004   1_455     S
Er52     V6    10.004   1_455     S
Er52     V14    10.004   1_455     S
Er52     V24    10.004   1_455     S
Er52     V32    10.004   1_455     S
Er53     V39    10.004   1_545     S
Er53     V47    10.004   1_545     S
Er53     V3    10.004   1_545     S
Er53     V11    10.004   1_545     S
Er54     V40    10.004   1_545     S
Er54     V48    10.004   1_545     S
Er54     V4    10.004   1_545     S
Er54     V12    10.004   1_545     S
