data_ceh
_audit_creation_date              2019-12-31
_audit_creation_method            'Pymatgen'
_symmetry_space_group_name_H-M    'P1'
_symmetry_Int_Tables_number       1
loop_
_symmetry_equiv_pos_as_xyz
  x,y,z
_cell_length_a                    28.8732
_cell_length_b                    28.8732
_cell_length_c                    25.8748
_cell_angle_alpha                 90.0
_cell_angle_beta                 90.0
_cell_angle_gamma                 120.0
loop_
_atom_site_label
_atom_site_type_symbol
_atom_site_fract_x
_atom_site_fract_y
_atom_site_fract_z
V1     V     0.8009   0.1991   0.0
V2     V     0.8009   0.1991   0.5
V3     V     0.1991   0.3982   0.0
V4     V     0.1991   0.3982   0.5
V5     V     0.3982   0.1991   0.0
V6     V     0.3982   0.1991   0.5
V7     V     0.1991   0.8009   0.0
V8     V     0.1991   0.8009   0.5
V9     V     0.8009   0.6018   0.0
V10     V     0.8009   0.6018   0.5
V11     V     0.6018   0.8009   0.0
V12     V     0.6018   0.8009   0.5
Er13     Er     0.0   0.0   0.0
Er14     Er     0.0   0.0   0.5
Ti15     Ti     0.0   0.5   0.25
Ti16     Ti     0.0   0.5   0.75
Ti17     Ti     0.5   0.0   0.25
Ti18     Ti     0.5   0.0   0.75
Ti19     Ti     0.5   0.5   0.25
Ti20     Ti     0.5   0.5   0.75
loop_
_geom_bond_atom_site_label_1
_geom_bond_atom_site_label_2
_geom_bond_distance
_geom_bond_site_symmetry_2
_ccdc_geom_bond_type
V1     Ti18    10.021   1_554     S
V1     Ti15    10.021   1_655     S
V1     Er13    9.958   1_655     S
V2     Ti17    10.021   .     S
V2     Ti16    10.021   1_655     S
V2     Er14    9.958   1_655     S
V3     Ti16    10.021   1_554     S
V3     Ti19    10.021   .     S
V3     Er13    9.958   .     S
V4     Ti15    10.021   .     S
V4     Ti20    10.021   .     S
V4     Er14    9.958   .     S
V5     Ti20    10.021   1_554     S
V5     Ti17    10.021   .     S
V5     Er13    9.958   .     S
V6     Ti19    10.021   .     S
V6     Ti18    10.021   .     S
V6     Er14    9.958   .     S
V7     Ti18    10.021   1_564     S
V7     Ti15    10.021   .     S
V7     Er13    9.958   1_565     S
V8     Ti17    10.021   1_565     S
V8     Ti16    10.021   .     S
V8     Er14    9.958   1_565     S
V9     Ti16    10.021   1_654     S
V9     Ti19    10.021   .     S
V9     Er13    9.958   1_665     S
V10     Ti15    10.021   1_655     S
V10     Ti20    10.021   .     S
V10     Er14    9.958   1_665     S
V11     Ti20    10.021   1_554     S
V11     Ti17    10.021   1_565     S
V11     Er13    9.958   1_665     S
V12     Ti19    10.021   .     S
V12     Ti18    10.021   1_565     S
V12     Er14    9.958   1_665     S
Er13     V1    9.958   1_455     S
Er13     V7    9.958   1_545     S
Er13     V9    9.958   1_445     S
Er13     V11    9.958   1_445     S
Er14     V2    9.958   1_455     S
Er14     V8    9.958   1_545     S
Er14     V10    9.958   1_445     S
Er14     V12    9.958   1_445     S
Ti15     V10    10.021   1_455     S
Ti15     V1    10.021   1_455     S
Ti16     V9    10.021   1_456     S
Ti16     V3    10.021   1_556     S
Ti16     V2    10.021   1_455     S
Ti17     V8    10.021   1_545     S
Ti17     V11    10.021   1_545     S
Ti18     V7    10.021   1_546     S
Ti18     V1    10.021   1_556     S
Ti18     V12    10.021   1_545     S
Ti20     V5    10.021   1_556     S
Ti20     V11    10.021   1_556     S
