data_cel
_audit_creation_date              2019-12-31
_audit_creation_method            'Pymatgen'
_symmetry_space_group_name_H-M    'P1'
_symmetry_Int_Tables_number       1
loop_
_symmetry_equiv_pos_as_xyz
  x,y,z
_cell_length_a                    28.8714
_cell_length_b                    28.8714
_cell_length_c                    25.813
_cell_angle_alpha                 90.0
_cell_angle_beta                 90.0
_cell_angle_gamma                 120.0
loop_
_atom_site_label
_atom_site_type_symbol
_atom_site_fract_x
_atom_site_fract_y
_atom_site_fract_z
V1     V     0.8   0.2   0.0
V2     V     0.8   0.2   0.5
V3     V     0.4   0.2   0.0
V4     V     0.4   0.2   0.5
Er5     Er     0.5   0.5   0.25
Er6     Er     0.5   0.5   0.75
Er7     Er     0.0   0.5   0.25
Er8     Er     0.0   0.5   0.75
V9     V     0.2   0.4   0.0
V10     V     0.2   0.4   0.5
V11     V     0.8   0.6   0.0
V12     V     0.8   0.6   0.5
V13     V     0.2   0.8   0.0
V14     V     0.2   0.8   0.5
V15     V     0.6   0.8   0.0
V16     V     0.6   0.8   0.5
Er17     Er     0.5   0.0   0.25
Er18     Er     0.5   0.0   0.75
Ti19     Ti     0.0   0.0   0.0
Ti20     Ti     0.0   0.0   0.5
loop_
_geom_bond_atom_site_label_1
_geom_bond_atom_site_label_2
_geom_bond_distance
_geom_bond_site_symmetry_2
_ccdc_geom_bond_type
V1     Er17    10.0   .     S
V1     Er18    10.0   1_554     S
V1     Er8    10.0   1_654     S
V1     Er7    10.0   1_655     S
V1     Ti19    10.0   1_655     S
V2     Er18    10.0   .     S
V2     Er17    10.0   .     S
V2     Er7    10.0   1_655     S
V2     Er8    10.0   1_655     S
V2     Ti20    10.0   1_655     S
V3     Ti19    10.0   .     S
V3     Er18    10.0   1_554     S
V3     Er17    10.0   .     S
V3     Er5    10.0   .     S
V3     Er6    10.0   1_554     S
V4     Ti20    10.0   .     S
V4     Er17    10.0   .     S
V4     Er18    10.0   .     S
V4     Er6    10.0   .     S
V4     Er5    10.0   .     S
Er5     V15    10.0   .     S
Er5     V16    10.0   .     S
Er5     V12    10.0   .     S
Er5     V10    10.0   .     S
Er5     V9    10.0   .     S
Er5     V11    10.0   .     S
Er6     V16    10.0   .     S
Er6     V15    10.0   1_556     S
Er6     V11    10.0   1_556     S
Er6     V9    10.0   1_556     S
Er6     V3    10.0   1_556     S
Er6     V10    10.0   .     S
Er6     V12    10.0   .     S
Er7     V11    10.0   1_455     S
Er7     V12    10.0   1_455     S
Er7     V9    10.0   .     S
Er7     V14    10.0   .     S
Er7     V2    10.0   1_455     S
Er7     V10    10.0   .     S
Er7     V1    10.0   1_455     S
Er7     V13    10.0   .     S
Er8     V12    10.0   1_455     S
Er8     V11    10.0   1_456     S
Er8     V10    10.0   .     S
Er8     V13    10.0   1_556     S
Er8     V1    10.0   1_456     S
Er8     V9    10.0   1_556     S
Er8     V2    10.0   1_455     S
Er8     V14    10.0   .     S
V9     Ti19    10.0   .     S
V9     Er6    10.0   1_554     S
V9     Er8    10.0   1_554     S
V10     Ti20    10.0   .     S
V11     Er7    10.0   1_655     S
V11     Er8    10.0   1_654     S
V11     Er6    10.0   1_554     S
V11     Ti19    10.0   1_665     S
V12     Er8    10.0   1_655     S
V12     Er7    10.0   1_655     S
V12     Ti20    10.0   1_665     S
V13     Er8    10.0   1_554     S
V13     Er17    10.0   1_565     S
V13     Er18    10.0   1_564     S
V13     Ti19    10.0   1_565     S
V14     Er18    10.0   1_565     S
V14     Er17    10.0   1_565     S
V14     Ti20    10.0   1_565     S
V15     Er6    10.0   1_554     S
V15     Er18    10.0   1_564     S
V15     Er17    10.0   1_565     S
V15     Ti19    10.0   1_665     S
V16     Er17    10.0   1_565     S
V16     Er18    10.0   1_565     S
V16     Ti20    10.0   1_665     S
Er17     V16    10.0   1_545     S
Er17     V15    10.0   1_545     S
Er17     V13    10.0   1_545     S
Er17     V14    10.0   1_545     S
Er18     V1    10.0   1_556     S
Er18     V3    10.0   1_556     S
Er18     V15    10.0   1_546     S
Er18     V16    10.0   1_545     S
Er18     V14    10.0   1_545     S
Er18     V13    10.0   1_546     S
Ti19     V15    10.0   1_445     S
Ti19     V11    10.0   1_445     S
Ti19     V13    10.0   1_545     S
Ti19     V1    10.0   1_455     S
Ti20     V16    10.0   1_445     S
Ti20     V12    10.0   1_445     S
Ti20     V14    10.0   1_545     S
Ti20     V2    10.0   1_455     S
