data_cen
_audit_creation_date              2019-12-31
_audit_creation_method            'Pymatgen'
_symmetry_space_group_name_H-M    'P1'
_symmetry_Int_Tables_number       1
loop_
_symmetry_equiv_pos_as_xyz
  x,y,z
_cell_length_a                    31.1938
_cell_length_b                    31.1938
_cell_length_c                    37.4126
_cell_angle_alpha                 90.0
_cell_angle_beta                 90.0
_cell_angle_gamma                 120.0
loop_
_atom_site_label
_atom_site_type_symbol
_atom_site_fract_x
_atom_site_fract_y
_atom_site_fract_z
Er1     Er     0.1667   0.3333   0.3841
Er2     Er     0.1667   0.3333   0.8841
Er3     Er     0.1667   0.8333   0.3841
Er4     Er     0.1667   0.8333   0.8841
Er5     Er     0.6667   0.3333   0.3841
Er6     Er     0.6667   0.3333   0.8841
Er7     Er     0.6667   0.8333   0.3841
Er8     Er     0.6667   0.8333   0.8841
Er9     Er     0.3333   0.1667   0.1159
Er10     Er     0.3333   0.1667   0.6159
Er11     Er     0.3333   0.6667   0.1159
Er12     Er     0.3333   0.6667   0.6159
Er13     Er     0.8333   0.1667   0.1159
Er14     Er     0.8333   0.1667   0.6159
Er15     Er     0.8333   0.6667   0.1159
Er16     Er     0.8333   0.6667   0.6159
Er17     Er     0.1667   0.3333   0.1159
Er18     Er     0.1667   0.3333   0.6159
Er19     Er     0.1667   0.8333   0.1159
Er20     Er     0.1667   0.8333   0.6159
Er21     Er     0.6667   0.3333   0.1159
Er22     Er     0.6667   0.3333   0.6159
Er23     Er     0.6667   0.8333   0.1159
Er24     Er     0.6667   0.8333   0.6159
Er25     Er     0.3333   0.1667   0.3841
Er26     Er     0.3333   0.1667   0.8841
Er27     Er     0.3333   0.6667   0.3841
Er28     Er     0.3333   0.6667   0.8841
Er29     Er     0.8333   0.1667   0.3841
Er30     Er     0.8333   0.1667   0.8841
Er31     Er     0.8333   0.6667   0.3841
Er32     Er     0.8333   0.6667   0.8841
V33     V     0.0   0.0   0.0
V34     V     0.0   0.0   0.5
V35     V     1.0   0.5   0.0
V36     V     1.0   0.5   0.5
V37     V     0.5   0.0   0.0
V38     V     0.5   0.0   0.5
V39     V     0.5   0.5   0.0
V40     V     0.5   0.5   0.5
loop_
_geom_bond_atom_site_label_1
_geom_bond_atom_site_label_2
_geom_bond_distance
_geom_bond_site_symmetry_2
_ccdc_geom_bond_type
Er1     Er17    10.037   .     S
Er1     V40    9.994   .     S
Er1     V36    9.994   1_455     S
Er1     V34    9.994   .     S
Er2     Er18    10.037   .     S
Er2     V39    9.994   1_556     S
Er2     V35    9.994   1_456     S
Er2     V33    9.994   1_556     S
Er3     Er19    10.037   .     S
Er3     V38    9.994   1_565     S
Er3     V34    9.994   1_565     S
Er3     V36    9.994   1_455     S
Er4     Er20    10.037   .     S
Er4     V37    9.994   1_566     S
Er4     V33    9.994   1_566     S
Er4     V35    9.994   1_456     S
Er5     Er21    10.037   .     S
Er5     V36    9.994   .     S
Er5     V40    9.994   .     S
Er5     V38    9.994   .     S
Er6     Er22    10.037   .     S
Er6     V35    9.994   1_556     S
Er6     V39    9.994   1_556     S
Er6     V37    9.994   1_556     S
Er7     Er23    10.037   .     S
Er7     V34    9.994   1_665     S
Er7     V38    9.994   1_565     S
Er7     V40    9.994   .     S
Er8     Er24    10.037   .     S
Er8     V33    9.994   1_666     S
Er8     V37    9.994   1_566     S
Er8     V39    9.994   1_556     S
Er9     Er25    10.037   .     S
Er9     V39    9.994   .     S
Er9     V33    9.994   .     S
Er9     V37    9.994   .     S
Er10     Er26    10.037   .     S
Er10     V40    9.994   .     S
Er10     V34    9.994   .     S
Er10     V38    9.994   .     S
Er11     Er27    10.037   .     S
Er11     V37    9.994   1_565     S
Er11     V35    9.994   1_455     S
Er11     V39    9.994   .     S
Er12     Er28    10.037   .     S
Er12     V38    9.994   1_565     S
Er12     V36    9.994   1_455     S
Er12     V40    9.994   .     S
Er13     Er29    10.037   .     S
Er13     V35    9.994   .     S
Er13     V37    9.994   .     S
Er13     V33    9.994   1_655     S
Er14     Er30    10.037   .     S
Er14     V36    9.994   .     S
Er14     V38    9.994   .     S
Er14     V34    9.994   1_655     S
Er15     Er31    10.037   .     S
Er15     V33    9.994   1_665     S
Er15     V39    9.994   .     S
Er15     V35    9.994   .     S
Er16     Er32    10.037   .     S
Er16     V34    9.994   1_665     S
Er16     V40    9.994   .     S
Er16     V36    9.994   .     S
Er17     V39    9.994   .     S
Er17     V35    9.994   1_455     S
Er17     V33    9.994   .     S
Er18     V40    9.994   .     S
Er18     V36    9.994   1_455     S
Er18     V34    9.994   .     S
Er19     V37    9.994   1_565     S
Er19     V33    9.994   1_565     S
Er19     V35    9.994   1_455     S
Er20     V38    9.994   1_565     S
Er20     V34    9.994   1_565     S
Er20     V36    9.994   1_455     S
Er21     V35    9.994   .     S
Er21     V39    9.994   .     S
Er21     V37    9.994   .     S
Er22     V36    9.994   .     S
Er22     V40    9.994   .     S
Er22     V38    9.994   .     S
Er23     V33    9.994   1_665     S
Er23     V37    9.994   1_565     S
Er23     V39    9.994   .     S
Er24     V34    9.994   1_665     S
Er24     V38    9.994   1_565     S
Er24     V40    9.994   .     S
Er25     V40    9.994   .     S
Er25     V34    9.994   .     S
Er25     V38    9.994   .     S
Er26     V39    9.994   1_556     S
Er26     V33    9.994   1_556     S
Er26     V37    9.994   1_556     S
Er27     V38    9.994   1_565     S
Er27     V36    9.994   1_455     S
Er27     V40    9.994   .     S
Er28     V37    9.994   1_566     S
Er28     V35    9.994   1_456     S
Er28     V39    9.994   1_556     S
Er29     V36    9.994   .     S
Er29     V38    9.994   .     S
Er29     V34    9.994   1_655     S
Er30     V35    9.994   1_556     S
Er30     V37    9.994   1_556     S
Er30     V33    9.994   1_656     S
Er31     V34    9.994   1_665     S
Er31     V40    9.994   .     S
Er31     V36    9.994   .     S
Er32     V33    9.994   1_666     S
Er32     V39    9.994   1_556     S
Er32     V35    9.994   1_556     S
V33     Er15    9.994   1_445     S
V33     Er32    9.994   1_444     S
V33     Er23    9.994   1_445     S
V33     Er8    9.994   1_444     S
V33     Er19    9.994   1_545     S
V33     Er4    9.994   1_544     S
V33     Er26    9.994   1_554     S
V33     Er2    9.994   1_554     S
V33     Er13    9.994   1_455     S
V33     Er30    9.994   1_454     S
V34     Er16    9.994   1_445     S
V34     Er31    9.994   1_445     S
V34     Er24    9.994   1_445     S
V34     Er7    9.994   1_445     S
V34     Er20    9.994   1_545     S
V34     Er3    9.994   1_545     S
V34     Er14    9.994   1_455     S
V34     Er29    9.994   1_455     S
V35     Er30    9.994   1_554     S
V35     Er6    9.994   1_554     S
V35     Er17    9.994   1_655     S
V35     Er2    9.994   1_654     S
V35     Er11    9.994   1_655     S
V35     Er28    9.994   1_654     S
V35     Er19    9.994   1_655     S
V35     Er4    9.994   1_654     S
V35     Er32    9.994   1_554     S
V36     Er18    9.994   1_655     S
V36     Er1    9.994   1_655     S
V36     Er12    9.994   1_655     S
V36     Er27    9.994   1_655     S
V36     Er20    9.994   1_655     S
V36     Er3    9.994   1_655     S
V37     Er11    9.994   1_545     S
V37     Er28    9.994   1_544     S
V37     Er19    9.994   1_545     S
V37     Er4    9.994   1_544     S
V37     Er23    9.994   1_545     S
V37     Er8    9.994   1_544     S
V37     Er30    9.994   1_554     S
V37     Er6    9.994   1_554     S
V37     Er26    9.994   1_554     S
V38     Er12    9.994   1_545     S
V38     Er27    9.994   1_545     S
V38     Er20    9.994   1_545     S
V38     Er3    9.994   1_545     S
V38     Er24    9.994   1_545     S
V38     Er7    9.994   1_545     S
V39     Er26    9.994   1_554     S
V39     Er2    9.994   1_554     S
V39     Er6    9.994   1_554     S
V39     Er32    9.994   1_554     S
V39     Er8    9.994   1_554     S
V39     Er28    9.994   1_554     S
