data_cfc
_audit_creation_date              2019-12-31
_audit_creation_method            'Pymatgen'
_symmetry_space_group_name_H-M    'P1'
_symmetry_Int_Tables_number       1
loop_
_symmetry_equiv_pos_as_xyz
  x,y,z
_cell_length_a                    32.6636
_cell_length_b                    32.6636
_cell_length_c                    53.3214
_cell_angle_alpha                 90.0
_cell_angle_beta                 90.0
_cell_angle_gamma                 120.0
loop_
_atom_site_label
_atom_site_type_symbol
_atom_site_fract_x
_atom_site_fract_y
_atom_site_fract_z
V1     V     0.0   0.0   0.4062
V2     V     0.0   0.5   0.4062
V3     V     0.5   0.0   0.4062
V4     V     0.5   0.5   0.4062
V5     V     0.0   0.0   0.5938
V6     V     0.0   0.5   0.5938
V7     V     0.5   0.0   0.5938
V8     V     0.5   0.5   0.5938
Er9     Er     0.3333   0.1667   0.3438
Er10     Er     0.3333   0.6667   0.3438
Er11     Er     0.8333   0.1667   0.3438
Er12     Er     0.8333   0.6667   0.3438
Er13     Er     0.3333   0.1667   0.1562
Er14     Er     0.3333   0.6667   0.1562
Er15     Er     0.8333   0.1667   0.1562
Er16     Er     0.8333   0.6667   0.1562
V17     V     0.0   0.0   0.9062
V18     V     0.0   0.5   0.9062
V19     V     0.5   0.0   0.9062
V20     V     0.5   0.5   0.9062
V21     V     0.0   0.0   0.0938
V22     V     0.0   0.5   0.0938
V23     V     0.5   0.0   0.0938
V24     V     0.5   0.5   0.0938
Er25     Er     0.1667   0.3333   0.6562
Er26     Er     0.1667   0.8333   0.6562
Er27     Er     0.6667   0.3333   0.6562
Er28     Er     0.6667   0.8333   0.6562
Er29     Er     0.1667   0.3333   0.8438
Er30     Er     0.1667   0.8333   0.8438
Er31     Er     0.6667   0.3333   0.8438
Er32     Er     0.6667   0.8333   0.8438
loop_
_geom_bond_atom_site_label_1
_geom_bond_atom_site_label_2
_geom_bond_distance
_geom_bond_site_symmetry_2
_ccdc_geom_bond_type
V1     Er9    10.0   .     S
V1     Er11    10.0   1_455     S
V1     V5    10.0   .     S
V1     Er12    10.0   1_445     S
V2     Er10    10.0   .     S
V2     Er12    10.0   1_455     S
V2     V6    10.0   .     S
V2     Er11    10.0   1_455     S
V3     Er11    10.0   .     S
V3     Er9    10.0   .     S
V3     V7    10.0   .     S
V3     Er10    10.0   1_545     S
V4     Er12    10.0   .     S
V4     Er10    10.0   .     S
V4     V8    10.0   .     S
V4     Er9    10.0   .     S
V5     Er25    10.0   .     S
V5     Er26    10.0   1_545     S
V5     Er28    10.0   1_445     S
V6     Er26    10.0   .     S
V6     Er25    10.0   .     S
V6     Er27    10.0   1_455     S
V7     Er27    10.0   .     S
V7     Er28    10.0   1_545     S
V7     Er26    10.0   1_545     S
V8     Er28    10.0   .     S
V8     Er27    10.0   .     S
V8     Er25    10.0   .     S
Er9     Er13    10.0   .     S
Er10     Er14    10.0   .     S
Er10     V3    10.0   1_565     S
Er11     V1    10.0   1_655     S
Er11     Er15    10.0   .     S
Er11     V2    10.0   1_655     S
Er12     V2    10.0   1_655     S
Er12     Er16    10.0   .     S
Er12     V1    10.0   1_665     S
Er13     V21    10.0   .     S
Er13     V23    10.0   .     S
Er13     V24    10.0   .     S
Er14     V22    10.0   .     S
Er14     V24    10.0   .     S
Er14     V23    10.0   1_565     S
Er15     V23    10.0   .     S
Er15     V21    10.0   1_655     S
Er15     V22    10.0   1_655     S
Er16     V24    10.0   .     S
Er16     V22    10.0   1_655     S
Er16     V21    10.0   1_665     S
V17     Er29    10.0   .     S
V17     Er30    10.0   1_545     S
V17     V21    10.0   1_556     S
V17     Er32    10.0   1_445     S
V18     Er30    10.0   .     S
V18     Er29    10.0   .     S
V18     V22    10.0   1_556     S
V18     Er31    10.0   1_455     S
V19     Er31    10.0   .     S
V19     Er32    10.0   1_545     S
V19     V23    10.0   1_556     S
V19     Er30    10.0   1_545     S
V20     Er32    10.0   .     S
V20     Er31    10.0   .     S
V20     V24    10.0   1_556     S
V20     Er29    10.0   .     S
V21     Er15    10.0   1_455     S
V21     V17    10.0   1_554     S
V21     Er16    10.0   1_445     S
V22     Er16    10.0   1_455     S
V22     V18    10.0   1_554     S
V22     Er15    10.0   1_455     S
V23     V19    10.0   1_554     S
V23     Er14    10.0   1_545     S
V24     V20    10.0   1_554     S
Er25     Er29    10.0   .     S
Er26     V5    10.0   1_565     S
Er26     Er30    10.0   .     S
Er26     V7    10.0   1_565     S
Er27     Er31    10.0   .     S
Er27     V6    10.0   1_655     S
Er28     V7    10.0   1_565     S
Er28     Er32    10.0   .     S
Er28     V5    10.0   1_665     S
Er30     V17    10.0   1_565     S
Er30     V19    10.0   1_565     S
Er31     V18    10.0   1_655     S
Er32     V19    10.0   1_565     S
Er32     V17    10.0   1_665     S
