data_cfd
_audit_creation_date              2019-12-31
_audit_creation_method            'Pymatgen'
_symmetry_space_group_name_H-M    'P1'
_symmetry_Int_Tables_number       1
loop_
_symmetry_equiv_pos_as_xyz
  x,y,z
_cell_length_a                    32.6988
_cell_length_b                    32.6988
_cell_length_c                    79.8086
_cell_angle_alpha                 90.0
_cell_angle_beta                 90.0
_cell_angle_gamma                 120.0
loop_
_atom_site_label
_atom_site_type_symbol
_atom_site_fract_x
_atom_site_fract_y
_atom_site_fract_z
V1     V     0.0   0.0   0.3126
V2     V     1.0   0.5   0.3126
V3     V     0.5   0.0   0.3126
V4     V     0.5   0.5   0.3126
V5     V     0.0   0.0   0.1874
V6     V     1.0   0.5   0.1874
V7     V     0.5   0.0   0.1874
V8     V     0.5   0.5   0.1874
Ti9     Ti     0.3333   0.1667   0.854
Ti10     Ti     0.3333   0.6667   0.854
Ti11     Ti     0.8333   0.1667   0.854
Ti12     Ti     0.8333   0.6667   0.854
Er13     Er     0.1667   0.3333   0.0207
Er14     Er     0.1667   0.8333   0.0207
Er15     Er     0.6667   0.3333   0.0207
Er16     Er     0.6667   0.8333   0.0207
Er17     Er     0.3333   0.1667   0.9793
Er18     Er     0.3333   0.6667   0.9793
Er19     Er     0.8333   0.1667   0.9793
Er20     Er     0.8333   0.6667   0.9793
Ti21     Ti     0.1667   0.3333   0.146
Ti22     Ti     0.1667   0.8333   0.146
Ti23     Ti     0.6667   0.3333   0.146
Ti24     Ti     0.6667   0.8333   0.146
Ti25     Ti     0.3333   0.1667   0.646
Ti26     Ti     0.3333   0.6667   0.646
Ti27     Ti     0.8333   0.1667   0.646
Ti28     Ti     0.8333   0.6667   0.646
Er29     Er     0.1667   0.3333   0.4793
Er30     Er     0.1667   0.8333   0.4793
Er31     Er     0.6667   0.3333   0.4793
Er32     Er     0.6667   0.8333   0.4793
Er33     Er     0.3333   0.1667   0.5207
Er34     Er     0.3333   0.6667   0.5207
Er35     Er     0.8333   0.1667   0.5207
Er36     Er     0.8333   0.6667   0.5207
Ti37     Ti     0.1667   0.3333   0.354
Ti38     Ti     0.1667   0.8333   0.354
Ti39     Ti     0.6667   0.3333   0.354
Ti40     Ti     0.6667   0.8333   0.354
V41     V     0.0   0.0   0.6874
V42     V     1.0   0.5   0.6874
V43     V     0.5   0.0   0.6874
V44     V     0.5   0.5   0.6874
V45     V     0.0   0.0   0.8126
V46     V     1.0   0.5   0.8126
V47     V     0.5   0.0   0.8126
V48     V     0.5   0.5   0.8126
loop_
_geom_bond_atom_site_label_1
_geom_bond_atom_site_label_2
_geom_bond_distance
_geom_bond_site_symmetry_2
_ccdc_geom_bond_type
V1     V5    10.0   .     S
V1     Ti38    10.0   1_545     S
V1     Ti40    10.0   1_445     S
V1     Ti37    10.0   .     S
V2     V6    10.0   .     S
V2     Ti37    10.0   1_655     S
V2     Ti39    10.0   .     S
V2     Ti38    10.0   1_655     S
V3     V7    10.0   .     S
V3     Ti40    10.0   1_545     S
V3     Ti38    10.0   1_545     S
V3     Ti39    10.0   .     S
V4     V8    10.0   .     S
V4     Ti39    10.0   .     S
V4     Ti37    10.0   .     S
V4     Ti40    10.0   .     S
V5     Ti22    10.0   1_545     S
V5     Ti24    10.0   1_445     S
V5     Ti21    10.0   .     S
V6     Ti21    10.0   1_655     S
V6     Ti23    10.0   .     S
V6     Ti22    10.0   1_655     S
V7     Ti24    10.0   1_545     S
V7     Ti22    10.0   1_545     S
V7     Ti23    10.0   .     S
V8     Ti23    10.0   .     S
V8     Ti21    10.0   .     S
V8     Ti24    10.0   .     S
Ti9     V45    10.0   .     S
Ti9     V48    10.0   .     S
Ti9     Er17    10.0   .     S
Ti9     V47    10.0   .     S
Ti10     V46    10.0   1_455     S
Ti10     V47    10.0   1_565     S
Ti10     Er18    10.0   .     S
Ti10     V48    10.0   .     S
Ti11     V47    10.0   .     S
Ti11     V46    10.0   .     S
Ti11     Er19    10.0   .     S
Ti11     V45    10.0   1_655     S
Ti12     V48    10.0   .     S
Ti12     V45    10.0   1_665     S
Ti12     Er20    10.0   .     S
Ti12     V46    10.0   .     S
Er13     Er17    10.0   1_554     S
Er13     Er18    10.0   1_554     S
Er13     Er19    10.0   1_454     S
Er13     Ti21    10.0   .     S
Er14     Er18    10.0   1_554     S
Er14     Er17    10.0   1_564     S
Er14     Er20    10.0   1_454     S
Er14     Ti22    10.0   .     S
Er15     Er19    10.0   1_554     S
Er15     Er20    10.0   1_554     S
Er15     Er17    10.0   1_554     S
Er15     Ti23    10.0   .     S
Er16     Er20    10.0   1_554     S
Er16     Er19    10.0   1_564     S
Er16     Er18    10.0   1_554     S
Er16     Ti24    10.0   .     S
Er17     Er13    10.0   1_556     S
Er17     Er14    10.0   1_546     S
Er17     Er15    10.0   1_556     S
Er18     Er14    10.0   1_556     S
Er18     Er13    10.0   1_556     S
Er18     Er16    10.0   1_556     S
Er19     Er15    10.0   1_556     S
Er19     Er16    10.0   1_546     S
Er19     Er13    10.0   1_656     S
Er20     Er16    10.0   1_556     S
Er20     Er15    10.0   1_556     S
Er20     Er14    10.0   1_656     S
Ti21     V6    10.0   1_455     S
Ti22     V5    10.0   1_565     S
Ti22     V7    10.0   1_565     S
Ti22     V6    10.0   1_455     S
Ti24     V7    10.0   1_565     S
Ti24     V5    10.0   1_665     S
Ti25     Er33    10.0   .     S
Ti25     V41    10.0   .     S
Ti25     V44    10.0   .     S
Ti25     V43    10.0   .     S
Ti26     Er34    10.0   .     S
Ti26     V42    10.0   1_455     S
Ti26     V43    10.0   1_565     S
Ti26     V44    10.0   .     S
Ti27     Er35    10.0   .     S
Ti27     V43    10.0   .     S
Ti27     V42    10.0   .     S
Ti27     V41    10.0   1_655     S
Ti28     Er36    10.0   .     S
Ti28     V44    10.0   .     S
Ti28     V41    10.0   1_665     S
Ti28     V42    10.0   .     S
Er29     Er33    10.0   .     S
Er29     Er35    10.0   1_455     S
Er29     Er34    10.0   .     S
Er29     Ti37    10.0   .     S
Er30     Er34    10.0   .     S
Er30     Er36    10.0   1_455     S
Er30     Er33    10.0   1_565     S
Er30     Ti38    10.0   .     S
Er31     Er35    10.0   .     S
Er31     Er33    10.0   .     S
Er31     Er36    10.0   .     S
Er31     Ti39    10.0   .     S
Er32     Er36    10.0   .     S
Er32     Er34    10.0   .     S
Er32     Er35    10.0   1_565     S
Er32     Ti40    10.0   .     S
Er33     Er30    10.0   1_545     S
Er35     Er29    10.0   1_655     S
Er35     Er32    10.0   1_545     S
Er36     Er30    10.0   1_655     S
Ti37     V2    10.0   1_455     S
Ti38     V1    10.0   1_565     S
Ti38     V3    10.0   1_565     S
Ti38     V2    10.0   1_455     S
Ti40     V3    10.0   1_565     S
Ti40     V1    10.0   1_665     S
V41     Ti28    10.0   1_445     S
V41     V45    10.0   .     S
V41     Ti27    10.0   1_455     S
V42     Ti26    10.0   1_655     S
V42     V46    10.0   .     S
V43     Ti26    10.0   1_545     S
V43     V47    10.0   .     S
V44     V48    10.0   .     S
V45     Ti12    10.0   1_445     S
V45     Ti11    10.0   1_455     S
V46     Ti10    10.0   1_655     S
V47     Ti10    10.0   1_545     S
