data_cfe
_audit_creation_date              2019-12-31
_audit_creation_method            'Pymatgen'
_symmetry_space_group_name_H-M    'P1'
_symmetry_Int_Tables_number       1
loop_
_symmetry_equiv_pos_as_xyz
  x,y,z
_cell_length_a                    32.6604
_cell_length_b                    32.6604
_cell_length_c                    119.9956
_cell_angle_alpha                 90.0
_cell_angle_beta                 90.0
_cell_angle_gamma                 120.0
loop_
_atom_site_label
_atom_site_type_symbol
_atom_site_fract_x
_atom_site_fract_y
_atom_site_fract_z
V1     V     0.1667   0.3333   0.125
V2     V     0.1667   0.8333   0.125
V3     V     0.6667   0.3333   0.125
V4     V     0.6667   0.8333   0.125
Ti5     Ti     0.3333   0.1667   0.0972
Ti6     Ti     0.3333   0.6667   0.0972
Ti7     Ti     0.8333   0.1667   0.0972
Ti8     Ti     0.8333   0.6667   0.0972
Er9     Er     0.1667   0.3333   0.9861
Er10     Er     0.1667   0.8333   0.9861
Er11     Er     0.6667   0.3333   0.9861
Er12     Er     0.6667   0.8333   0.9861
Er13     Er     0.3333   0.1667   0.0139
Er14     Er     0.3333   0.6667   0.0139
Er15     Er     0.8333   0.1667   0.0139
Er16     Er     0.8333   0.6667   0.0139
V17     V     0.3333   0.1667   0.875
V18     V     0.3333   0.6667   0.875
V19     V     0.8333   0.1667   0.875
V20     V     0.8333   0.6667   0.875
Ti21     Ti     0.1667   0.3333   0.9028
Ti22     Ti     0.1667   0.8333   0.9028
Ti23     Ti     0.6667   0.3333   0.9028
Ti24     Ti     0.6667   0.8333   0.9028
V25     V     0.3333   0.1667   0.7917
V26     V     0.3333   0.6667   0.7917
V27     V     0.8333   0.1667   0.7917
V28     V     0.8333   0.6667   0.7917
Ti29     Ti     0.0   0.0   0.7639
Ti30     Ti     1.0   0.5   0.7639
Ti31     Ti     0.5   0.0   0.7639
Ti32     Ti     0.5   0.5   0.7639
Er33     Er     0.3333   0.1667   0.6528
Er34     Er     0.3333   0.6667   0.6528
Er35     Er     0.8333   0.1667   0.6528
Er36     Er     0.8333   0.6667   0.6528
Er37     Er     0.0   0.0   0.6806
Er38     Er     1.0   0.5   0.6806
Er39     Er     0.5   0.0   0.6806
Er40     Er     0.5   0.5   0.6806
V41     V     0.1667   0.3333   0.2083
V42     V     0.1667   0.8333   0.2083
V43     V     0.6667   0.3333   0.2083
V44     V     0.6667   0.8333   0.2083
Ti45     Ti     0.0   0.0   0.2361
Ti46     Ti     1.0   0.5   0.2361
Ti47     Ti     0.5   0.0   0.2361
Ti48     Ti     0.5   0.5   0.2361
Er49     Er     0.0   0.0   0.3194
Er50     Er     1.0   0.5   0.3194
Er51     Er     0.5   0.0   0.3194
Er52     Er     0.5   0.5   0.3194
Er53     Er     0.1667   0.3333   0.3472
Er54     Er     0.1667   0.8333   0.3472
Er55     Er     0.6667   0.3333   0.3472
Er56     Er     0.6667   0.8333   0.3472
V57     V     0.0   0.0   0.5417
V58     V     1.0   0.5   0.5417
V59     V     0.5   0.0   0.5417
V60     V     0.5   0.5   0.5417
Ti61     Ti     0.3333   0.1667   0.5694
Ti62     Ti     0.3333   0.6667   0.5694
Ti63     Ti     0.8333   0.1667   0.5694
Ti64     Ti     0.8333   0.6667   0.5694
V65     V     0.0   0.0   0.4583
V66     V     1.0   0.5   0.4583
V67     V     0.5   0.0   0.4583
V68     V     0.5   0.5   0.4583
Ti69     Ti     0.1667   0.3333   0.4306
Ti70     Ti     0.1667   0.8333   0.4306
Ti71     Ti     0.6667   0.3333   0.4306
Ti72     Ti     0.6667   0.8333   0.4306
loop_
_geom_bond_atom_site_label_1
_geom_bond_atom_site_label_2
_geom_bond_distance
_geom_bond_site_symmetry_2
_ccdc_geom_bond_type
V1     Ti6    10.0   .     S
V1     Ti7    10.0   1_455     S
V1     Ti5    10.0   .     S
V1     V41    10.0   .     S
V2     Ti5    10.0   1_565     S
V2     Ti8    10.0   1_455     S
V2     Ti6    10.0   .     S
V2     V42    10.0   .     S
V3     Ti8    10.0   .     S
V3     Ti5    10.0   .     S
V3     Ti7    10.0   .     S
V3     V43    10.0   .     S
V4     Ti7    10.0   1_565     S
V4     Ti6    10.0   .     S
V4     Ti8    10.0   .     S
V4     V44    10.0   .     S
Ti5     V2    10.0   1_545     S
Ti5     Er13    10.0   .     S
Ti6     Er14    10.0   .     S
Ti7     V4    10.0   1_545     S
Ti7     V1    10.0   1_655     S
Ti7     Er15    10.0   .     S
Ti8     V2    10.0   1_655     S
Ti8     Er16    10.0   .     S
Er9     Er14    10.0   1_556     S
Er9     Er15    10.0   1_456     S
Er9     Er13    10.0   1_556     S
Er9     Ti21    10.0   .     S
Er10     Er13    10.0   1_566     S
Er10     Er16    10.0   1_456     S
Er10     Er14    10.0   1_556     S
Er10     Ti22    10.0   .     S
Er11     Er16    10.0   1_556     S
Er11     Er13    10.0   1_556     S
Er11     Er15    10.0   1_556     S
Er11     Ti23    10.0   .     S
Er12     Er15    10.0   1_566     S
Er12     Er14    10.0   1_556     S
Er12     Er16    10.0   1_556     S
Er12     Ti24    10.0   .     S
Er13     Er10    10.0   1_544     S
Er13     Er11    10.0   1_554     S
Er13     Er9    10.0   1_554     S
Er14     Er9    10.0   1_554     S
Er14     Er12    10.0   1_554     S
Er14     Er10    10.0   1_554     S
Er15     Er12    10.0   1_544     S
Er15     Er9    10.0   1_654     S
Er15     Er11    10.0   1_554     S
Er16     Er11    10.0   1_554     S
Er16     Er10    10.0   1_654     S
Er16     Er12    10.0   1_554     S
V17     Ti22    10.0   1_545     S
V17     Ti23    10.0   .     S
V17     Ti21    10.0   .     S
V17     V25    10.0   .     S
V18     Ti21    10.0   .     S
V18     Ti24    10.0   .     S
V18     Ti22    10.0   .     S
V18     V26    10.0   .     S
V19     Ti24    10.0   1_545     S
V19     Ti21    10.0   1_655     S
V19     Ti23    10.0   .     S
V19     V27    10.0   .     S
V20     Ti23    10.0   .     S
V20     Ti22    10.0   1_655     S
V20     Ti24    10.0   .     S
V20     V28    10.0   .     S
Ti21     V19    10.0   1_455     S
Ti22     V17    10.0   1_565     S
Ti22     V20    10.0   1_455     S
Ti24     V19    10.0   1_565     S
V25     Ti31    10.0   .     S
V25     Ti29    10.0   .     S
V25     Ti32    10.0   .     S
V26     Ti32    10.0   .     S
V26     Ti30    10.0   1_455     S
V26     Ti31    10.0   1_565     S
V27     Ti29    10.0   1_655     S
V27     Ti31    10.0   .     S
V27     Ti30    10.0   .     S
V28     Ti30    10.0   .     S
V28     Ti32    10.0   .     S
V28     Ti29    10.0   1_665     S
Ti29     V27    10.0   1_455     S
Ti29     V28    10.0   1_445     S
Ti29     Er37    10.0   .     S
Ti30     V26    10.0   1_655     S
Ti30     Er38    10.0   .     S
Ti31     V26    10.0   1_545     S
Ti31     Er39    10.0   .     S
Ti32     Er40    10.0   .     S
Er33     Er37    10.0   .     S
Er33     Er40    10.0   .     S
Er33     Er39    10.0   .     S
Er33     Ti61    10.0   .     S
Er34     Er38    10.0   1_455     S
Er34     Er39    10.0   1_565     S
Er34     Er40    10.0   .     S
Er34     Ti62    10.0   .     S
Er35     Er39    10.0   .     S
Er35     Er38    10.0   .     S
Er35     Er37    10.0   1_655     S
Er35     Ti63    10.0   .     S
Er36     Er40    10.0   .     S
Er36     Er37    10.0   1_665     S
Er36     Er38    10.0   .     S
Er36     Ti64    10.0   .     S
Er37     Er36    10.0   1_445     S
Er37     Er35    10.0   1_455     S
Er38     Er34    10.0   1_655     S
Er39     Er34    10.0   1_545     S
V41     Ti46    10.0   1_455     S
V41     Ti45    10.0   .     S
V41     Ti48    10.0   .     S
V42     Ti45    10.0   1_565     S
V42     Ti46    10.0   1_455     S
V42     Ti47    10.0   1_565     S
V43     Ti48    10.0   .     S
V43     Ti47    10.0   .     S
V43     Ti46    10.0   .     S
V44     Ti47    10.0   1_565     S
V44     Ti48    10.0   .     S
V44     Ti45    10.0   1_665     S
Ti45     V42    10.0   1_545     S
Ti45     V44    10.0   1_445     S
Ti45     Er49    10.0   .     S
Ti46     V41    10.0   1_655     S
Ti46     V42    10.0   1_655     S
Ti46     Er50    10.0   .     S
Ti47     V44    10.0   1_545     S
Ti47     V42    10.0   1_545     S
Ti47     Er51    10.0   .     S
Ti48     Er52    10.0   .     S
Er49     Er53    10.0   .     S
Er49     Er56    10.0   1_445     S
Er49     Er54    10.0   1_545     S
Er50     Er54    10.0   1_655     S
Er50     Er55    10.0   .     S
Er50     Er53    10.0   1_655     S
Er51     Er55    10.0   .     S
Er51     Er54    10.0   1_545     S
Er51     Er56    10.0   1_545     S
Er52     Er56    10.0   .     S
Er52     Er53    10.0   .     S
Er52     Er55    10.0   .     S
Er53     Er50    10.0   1_455     S
Er53     Ti69    10.0   .     S
Er54     Er50    10.0   1_455     S
Er54     Er51    10.0   1_565     S
Er54     Er49    10.0   1_565     S
Er54     Ti70    10.0   .     S
Er55     Ti71    10.0   .     S
Er56     Er49    10.0   1_665     S
Er56     Er51    10.0   1_565     S
Er56     Ti72    10.0   .     S
V57     Ti63    10.0   1_455     S
V57     Ti64    10.0   1_445     S
V57     Ti61    10.0   .     S
V57     V65    10.0   .     S
V58     Ti64    10.0   .     S
V58     Ti63    10.0   .     S
V58     Ti62    10.0   1_655     S
V58     V66    10.0   .     S
V59     Ti61    10.0   .     S
V59     Ti62    10.0   1_545     S
V59     Ti63    10.0   .     S
V59     V67    10.0   .     S
V60     Ti62    10.0   .     S
V60     Ti61    10.0   .     S
V60     Ti64    10.0   .     S
V60     V68    10.0   .     S
Ti62     V59    10.0   1_565     S
Ti62     V58    10.0   1_455     S
Ti63     V57    10.0   1_655     S
Ti64     V57    10.0   1_665     S
V65     Ti70    10.0   1_545     S
V65     Ti72    10.0   1_445     S
V65     Ti69    10.0   .     S
V66     Ti69    10.0   1_655     S
V66     Ti71    10.0   .     S
V66     Ti70    10.0   1_655     S
V67     Ti72    10.0   1_545     S
V67     Ti70    10.0   1_545     S
V67     Ti71    10.0   .     S
V68     Ti71    10.0   .     S
V68     Ti69    10.0   .     S
V68     Ti72    10.0   .     S
Ti69     V66    10.0   1_455     S
Ti70     V65    10.0   1_565     S
Ti70     V67    10.0   1_565     S
Ti70     V66    10.0   1_455     S
Ti72     V67    10.0   1_565     S
Ti72     V65    10.0   1_665     S
