data_clh
_audit_creation_date              2019-12-31
_audit_creation_method            'Pymatgen'
_symmetry_space_group_name_H-M    'P1'
_symmetry_Int_Tables_number       1
loop_
_symmetry_equiv_pos_as_xyz
  x,y,z
_cell_length_a                    37.723
_cell_length_b                    37.723
_cell_length_c                    53.3031
_cell_angle_alpha                 90.0
_cell_angle_beta                 90.0
_cell_angle_gamma                 90.0
loop_
_atom_site_label
_atom_site_type_symbol
_atom_site_fract_x
_atom_site_fract_y
_atom_site_fract_z
Er1     Er     0.25   0.25   0.6562
Er2     Er     0.25   0.75   0.6562
Er3     Er     0.75   0.25   0.6562
Er4     Er     0.75   0.75   0.6562
Er5     Er     0.25   0.25   0.8438
Er6     Er     0.25   0.75   0.8438
Er7     Er     0.75   0.25   0.8438
Er8     Er     0.75   0.75   0.8438
V9     V     0.0   0.25   0.4062
V10     V     0.0   0.75   0.4062
V11     V     0.5   0.25   0.4062
V12     V     0.5   0.75   0.4062
V13     V     0.0   0.25   0.5938
V14     V     0.0   0.75   0.5938
V15     V     0.5   0.25   0.5938
V16     V     0.5   0.75   0.5938
Er17     Er     0.25   0.25   0.1562
Er18     Er     0.25   0.75   0.1562
Er19     Er     0.75   0.25   0.1562
Er20     Er     0.75   0.75   0.1562
Er21     Er     0.25   0.25   0.3438
Er22     Er     0.25   0.75   0.3438
Er23     Er     0.75   0.25   0.3438
Er24     Er     0.75   0.75   0.3438
V25     V     0.25   0.0   0.9062
V26     V     0.25   0.5   0.9062
V27     V     0.75   0.0   0.9062
V28     V     0.75   0.5   0.9062
V29     V     0.25   0.0   0.0938
V30     V     0.25   0.5   0.0938
V31     V     0.75   0.0   0.0938
V32     V     0.75   0.5   0.0938
loop_
_geom_bond_atom_site_label_1
_geom_bond_atom_site_label_2
_geom_bond_distance
_geom_bond_site_symmetry_2
_ccdc_geom_bond_type
Er1     Er5    10.0   .     S
Er1     V15    10.0   .     S
Er1     V13    10.0   .     S
Er2     Er6    10.0   .     S
Er2     V16    10.0   .     S
Er2     V14    10.0   .     S
Er3     Er7    10.0   .     S
Er3     V13    10.0   1_655     S
Er3     V15    10.0   .     S
Er4     Er8    10.0   .     S
Er4     V14    10.0   1_655     S
Er4     V16    10.0   .     S
Er5     V26    10.0   .     S
Er5     V25    10.0   .     S
Er6     V25    10.0   1_565     S
Er6     V26    10.0   .     S
Er7     V28    10.0   .     S
Er7     V27    10.0   .     S
Er8     V27    10.0   1_565     S
Er8     V28    10.0   .     S
V9     V13    10.0   .     S
V9     Er21    10.0   .     S
V9     Er23    10.0   1_455     S
V10     V14    10.0   .     S
V10     Er22    10.0   .     S
V10     Er24    10.0   1_455     S
V11     V15    10.0   .     S
V11     Er23    10.0   .     S
V11     Er21    10.0   .     S
V12     V16    10.0   .     S
V12     Er24    10.0   .     S
V12     Er22    10.0   .     S
V13     Er3    10.0   1_455     S
V14     Er4    10.0   1_455     S
Er17     Er21    10.0   .     S
Er17     V29    10.0   .     S
Er17     V30    10.0   .     S
Er18     Er22    10.0   .     S
Er18     V30    10.0   .     S
Er18     V29    10.0   1_565     S
Er19     Er23    10.0   .     S
Er19     V31    10.0   .     S
Er19     V32    10.0   .     S
Er20     Er24    10.0   .     S
Er20     V32    10.0   .     S
Er20     V31    10.0   1_565     S
Er23     V9    10.0   1_655     S
Er24     V10    10.0   1_655     S
V25     V29    10.0   1_556     S
V25     Er6    10.0   1_545     S
V26     V30    10.0   1_556     S
V27     V31    10.0   1_556     S
V27     Er8    10.0   1_545     S
V28     V32    10.0   1_556     S
V29     V25    10.0   1_554     S
V29     Er18    10.0   1_545     S
V30     V26    10.0   1_554     S
V31     V27    10.0   1_554     S
V31     Er20    10.0   1_545     S
V32     V28    10.0   1_554     S
