data_cnw
_audit_creation_date              2019-12-31
_audit_creation_method            'Pymatgen'
_symmetry_space_group_name_H-M    'P1'
_symmetry_Int_Tables_number       1
loop_
_symmetry_equiv_pos_as_xyz
  x,y,z
_cell_length_a                    58.7376
_cell_length_b                    32.8356
_cell_length_c                    26.3733
_cell_angle_alpha                 90.0
_cell_angle_beta                 90.0
_cell_angle_gamma                 90.0
loop_
_atom_site_label
_atom_site_type_symbol
_atom_site_fract_x
_atom_site_fract_y
_atom_site_fract_z
Er1     Er     0.19   0.125   0.2937
Er2     Er     0.19   0.625   0.2937
Ti3     Ti     0.1972   0.375   0.0777
Ti4     Ti     0.1972   0.875   0.0777
V5     V     0.0283   0.125   0.4119
V6     V     0.0283   0.625   0.4119
Ce7     Ce     0.9607   0.125   0.0638
Ce8     Ce     0.9607   0.625   0.0638
Ce9     Ce     0.0393   0.375   0.9362
Ce10     Ce     0.0393   0.875   0.9362
Er11     Er     0.81   0.375   0.7063
Er12     Er     0.81   0.875   0.7063
Ti13     Ti     0.8028   0.125   0.9223
Ti14     Ti     0.8028   0.625   0.9223
V15     V     0.9717   0.375   0.5881
V16     V     0.9717   0.875   0.5881
Er17     Er     0.31   0.375   0.7937
Er18     Er     0.31   0.875   0.7937
Ti19     Ti     0.3028   0.125   0.5777
Ti20     Ti     0.3028   0.625   0.5777
V21     V     0.4717   0.375   0.9119
V22     V     0.4717   0.875   0.9119
Ce23     Ce     0.5393   0.375   0.5638
Ce24     Ce     0.5393   0.875   0.5638
Ce25     Ce     0.4607   0.125   0.4362
Ce26     Ce     0.4607   0.625   0.4362
Er27     Er     0.69   0.125   0.2063
Er28     Er     0.69   0.625   0.2063
Ti29     Ti     0.6972   0.375   0.4223
Ti30     Ti     0.6972   0.875   0.4223
V31     V     0.5283   0.125   0.0881
V32     V     0.5283   0.625   0.0881
loop_
_geom_bond_atom_site_label_1
_geom_bond_atom_site_label_2
_geom_bond_distance
_geom_bond_site_symmetry_2
_ccdc_geom_bond_type
Er1     Ti19    10.0   .     S
Er1     V5    10.0   .     S
Er1     Ti4    10.0   1_545     S
Er1     Ti3    10.0   .     S
Er2     Ti20    10.0   .     S
Er2     V6    10.0   .     S
Er2     Ti3    10.0   .     S
Er2     Ti4    10.0   .     S
Ti3     Ce9    10.0   1_554     S
Ti3     Er17    10.0   1_554     S
Ti4     Er1    10.0   1_565     S
Ti4     Ce10    10.0   1_554     S
Ti4     Er18    10.0   1_554     S
V5     Ce7    10.0   1_455     S
V5     V16    10.0   1_445     S
V5     V15    10.0   1_455     S
V6     Ce8    10.0   1_455     S
V6     V15    10.0   1_455     S
V6     V16    10.0   1_455     S
Ce7     Ti13    10.0   1_554     S
Ce7     Ce10    10.0   1_644     S
Ce7     Ce9    10.0   1_654     S
Ce7     V5    10.0   1_655     S
Ce8     Ti14    10.0   1_554     S
Ce8     Ce9    10.0   1_654     S
Ce8     Ce10    10.0   1_654     S
Ce8     V6    10.0   1_655     S
Ce9     Ti3    10.0   1_556     S
Ce9     Ce8    10.0   1_456     S
Ce9     Ce7    10.0   1_456     S
Ce9     V15    10.0   1_455     S
Ce10     Ti4    10.0   1_556     S
Ce10     Ce7    10.0   1_466     S
Ce10     Ce8    10.0   1_456     S
Ce10     V16    10.0   1_455     S
Er11     Ti29    10.0   .     S
Er11     V15    10.0   .     S
Er11     Ti13    10.0   .     S
Er11     Ti14    10.0   .     S
Er12     Ti30    10.0   .     S
Er12     V16    10.0   .     S
Er12     Ti14    10.0   .     S
Er12     Ti13    10.0   1_565     S
Ti13     Ce7    10.0   1_556     S
Ti13     Er12    10.0   1_545     S
Ti13     Er27    10.0   1_556     S
Ti14     Ce8    10.0   1_556     S
Ti14     Er28    10.0   1_556     S
V15     Ce9    10.0   1_655     S
V15     V6    10.0   1_655     S
V15     V5    10.0   1_655     S
V16     Ce10    10.0   1_655     S
V16     V5    10.0   1_665     S
V16     V6    10.0   1_655     S
Er17     Ti3    10.0   1_556     S
Er17     V21    10.0   .     S
Er17     Ti20    10.0   .     S
Er17     Ti19    10.0   .     S
Er18     Ti4    10.0   1_556     S
Er18     V22    10.0   .     S
Er18     Ti19    10.0   1_565     S
Er18     Ti20    10.0   .     S
Ti19     Er18    10.0   1_545     S
Ti19     Ce25    10.0   .     S
Ti20     Ce26    10.0   .     S
V21     Ce23    10.0   .     S
V21     V32    10.0   1_556     S
V21     V31    10.0   1_556     S
V22     Ce24    10.0   .     S
V22     V31    10.0   1_566     S
V22     V32    10.0   1_556     S
Ce23     Ti29    10.0   .     S
Ce23     Ce26    10.0   .     S
Ce23     Ce25    10.0   .     S
Ce24     Ti30    10.0   .     S
Ce24     Ce25    10.0   1_565     S
Ce24     Ce26    10.0   .     S
Ce25     Ce24    10.0   1_545     S
Ce25     V31    10.0   .     S
Ce26     V32    10.0   .     S
Er27     Ti13    10.0   1_554     S
Er27     V31    10.0   .     S
Er27     Ti29    10.0   .     S
Er27     Ti30    10.0   1_545     S
Er28     Ti14    10.0   1_554     S
Er28     V32    10.0   .     S
Er28     Ti30    10.0   .     S
Er28     Ti29    10.0   .     S
Ti30     Er27    10.0   1_565     S
V31     V22    10.0   1_544     S
V31     V21    10.0   1_554     S
V32     V21    10.0   1_554     S
V32     V22    10.0   1_554     S
