data_coi
_audit_creation_date              2019-12-31
_audit_creation_method            'Pymatgen'
_symmetry_space_group_name_H-M    'P1'
_symmetry_Int_Tables_number       1
loop_
_symmetry_equiv_pos_as_xyz
  x,y,z
_cell_length_a                    44.2292
_cell_length_b                    44.2292
_cell_length_c                    37.745
_cell_angle_alpha                 90.0
_cell_angle_beta                 90.0
_cell_angle_gamma                 90.0
loop_
_atom_site_label
_atom_site_type_symbol
_atom_site_fract_x
_atom_site_fract_y
_atom_site_fract_z
Er1     Er     0.6652   0.1348   0.4841
Er2     Er     0.6652   0.1348   0.9841
Ce3     Ce     0.6249   0.9153   0.25
Ce4     Ce     0.6249   0.9153   0.75
Ti5     Ti     0.5942   0.139   0.2356
Ti6     Ti     0.5942   0.139   0.7356
V7     V     0.4568   0.2155   0.4437
V8     V     0.4568   0.2155   0.9437
Er9     Er     0.3348   0.8652   0.4841
Er10     Er     0.3348   0.8652   0.9841
Ce11     Ce     0.3751   0.0847   0.25
Ce12     Ce     0.3751   0.0847   0.75
Ti13     Ti     0.4058   0.861   0.2356
Ti14     Ti     0.4058   0.861   0.7356
V15     V     0.5432   0.7845   0.4437
V16     V     0.5432   0.7845   0.9437
Er17     Er     0.8652   0.1652   0.1091
Er18     Er     0.8652   0.1652   0.6091
Ce19     Ce     0.0847   0.1249   0.375
Ce20     Ce     0.0847   0.1249   0.875
Ti21     Ti     0.861   0.0942   0.3606
Ti22     Ti     0.861   0.0942   0.8606
V23     V     0.7845   0.9568   0.0687
V24     V     0.7845   0.9568   0.5687
Er25     Er     0.1348   0.8348   0.1091
Er26     Er     0.1348   0.8348   0.6091
Ce27     Ce     0.9153   0.8751   0.375
Ce28     Ce     0.9153   0.8751   0.875
Ti29     Ti     0.139   0.9058   0.3606
Ti30     Ti     0.139   0.9058   0.8606
V31     V     0.2155   0.0432   0.0687
V32     V     0.2155   0.0432   0.5687
Er33     Er     0.8348   0.3652   0.2341
Er34     Er     0.8348   0.3652   0.7341
Ce35     Ce     0.8751   0.5847   0.0
Ce36     Ce     0.8751   0.5847   0.5
Ti37     Ti     0.9058   0.3611   0.4856
Ti38     Ti     0.9058   0.3611   0.9856
V39     V     0.0432   0.2845   0.1937
V40     V     0.0432   0.2845   0.6937
Er41     Er     0.1652   0.6348   0.2341
Er42     Er     0.1652   0.6348   0.7341
Ce43     Ce     0.1249   0.4153   0.0
Ce44     Ce     0.1249   0.4153   0.5
Ti45     Ti     0.0942   0.639   0.4856
Ti46     Ti     0.0942   0.639   0.9856
V47     V     0.9568   0.7155   0.1937
V48     V     0.9568   0.7155   0.6937
Er49     Er     0.3652   0.6652   0.3591
Er50     Er     0.3652   0.6652   0.8591
Ce51     Ce     0.5847   0.6249   0.125
Ce52     Ce     0.5847   0.6249   0.625
Ti53     Ti     0.361   0.5942   0.1106
Ti54     Ti     0.361   0.5942   0.6106
V55     V     0.2845   0.4568   0.3187
V56     V     0.2845   0.4568   0.8187
Er57     Er     0.6348   0.3348   0.3591
Er58     Er     0.6348   0.3348   0.8591
Ce59     Ce     0.4153   0.3751   0.125
Ce60     Ce     0.4153   0.3751   0.625
Ti61     Ti     0.639   0.4058   0.1106
Ti62     Ti     0.639   0.4058   0.6106
V63     V     0.7155   0.5432   0.3187
V64     V     0.7155   0.5432   0.8187
loop_
_geom_bond_atom_site_label_1
_geom_bond_atom_site_label_2
_geom_bond_distance
_geom_bond_site_symmetry_2
_ccdc_geom_bond_type
Er1     V7    10.0   .     S
Er1     Ti6    10.0   .     S
Er1     Ti21    10.0   .     S
Er1     V24    10.0   1_545     S
Er2     V8    10.0   .     S
Er2     Ti5    10.0   1_556     S
Er2     Ti22    10.0   .     S
Er2     V23    10.0   1_546     S
Ce3     Ti13    10.0   .     S
Ce3     Ti5    10.0   1_565     S
Ce3     V15    10.0   .     S
Ce3     V23    10.0   .     S
Ce4     Ti14    10.0   .     S
Ce4     Ti6    10.0   1_565     S
Ce4     V16    10.0   .     S
Ce4     V24    10.0   .     S
Ti5     Er2    10.0   1_554     S
Ti5     Ce3    10.0   1_545     S
Ti5     Ce11    10.0   .     S
Ti5     Er57    10.0   .     S
Ti6     Ce4    10.0   1_545     S
Ti6     Ce12    10.0   .     S
Ti6     Er58    10.0   .     S
V7     Er57    10.0   .     S
V7     Ce11    10.0   .     S
V7     Ce60    10.0   .     S
V8     Er58    10.0   .     S
V8     Ce12    10.0   .     S
V8     Ce59    10.0   1_556     S
Er9     V15    10.0   .     S
Er9     Ti14    10.0   .     S
Er9     Ti29    10.0   .     S
Er9     V32    10.0   1_565     S
Er10     V16    10.0   .     S
Er10     Ti13    10.0   1_556     S
Er10     Ti30    10.0   .     S
Er10     V31    10.0   1_566     S
Ce11     Ti13    10.0   1_545     S
Ce11     V31    10.0   .     S
Ce12     Ti14    10.0   1_545     S
Ce12     V32    10.0   .     S
Ti13     Er10    10.0   1_554     S
Ti13     Ce11    10.0   1_565     S
Ti13     Er49    10.0   .     S
Ti14     Ce12    10.0   1_565     S
Ti14     Er50    10.0   .     S
V15     Er49    10.0   .     S
V15     Ce52    10.0   .     S
V16     Er50    10.0   .     S
V16     Ce51    10.0   1_556     S
Er17     V23    10.0   1_545     S
Er17     Ti21    10.0   .     S
Er17     Ti38    10.0   1_554     S
Er17     V39    10.0   1_655     S
Er18     V24    10.0   1_545     S
Er18     Ti22    10.0   .     S
Er18     Ti37    10.0   .     S
Er18     V40    10.0   1_655     S
Ce19     Ti29    10.0   1_545     S
Ce19     Ti21    10.0   1_455     S
Ce19     V32    10.0   .     S
Ce19     V39    10.0   .     S
Ce20     Ti30    10.0   1_545     S
Ce20     Ti22    10.0   1_455     S
Ce20     V31    10.0   1_556     S
Ce20     V40    10.0   .     S
Ti21     Ce19    10.0   1_655     S
Ti21     Ce27    10.0   1_545     S
Ti22     Ce20    10.0   1_655     S
Ti22     Ce28    10.0   1_545     S
V23     Er17    10.0   1_565     S
V23     Er2    10.0   1_564     S
V23     Ce28    10.0   1_554     S
V24     Er18    10.0   1_565     S
V24     Er1    10.0   1_565     S
V24     Ce27    10.0   .     S
Er25     V31    10.0   1_565     S
Er25     Ti29    10.0   .     S
Er25     Ti46    10.0   1_554     S
Er25     V47    10.0   1_455     S
Er26     V32    10.0   1_565     S
Er26     Ti30    10.0   .     S
Er26     Ti45    10.0   .     S
Er26     V48    10.0   1_455     S
Ce27     Ti21    10.0   1_565     S
Ce27     Ti29    10.0   1_655     S
Ce27     V47    10.0   .     S
Ce28     Ti22    10.0   1_565     S
Ce28     Ti30    10.0   1_655     S
Ce28     V23    10.0   1_556     S
Ce28     V48    10.0   .     S
Ti29     Ce19    10.0   1_565     S
Ti29     Ce27    10.0   1_455     S
Ti30     Ce20    10.0   1_565     S
Ti30     Ce28    10.0   1_455     S
V31     Ce20    10.0   1_554     S
V31     Er25    10.0   1_545     S
V31     Er10    10.0   1_544     S
V32     Er26    10.0   1_545     S
V32     Er9    10.0   1_545     S
Er33     V39    10.0   1_655     S
Er33     Ti37    10.0   .     S
Er33     Ti61    10.0   .     S
Er33     V63    10.0   .     S
Er34     V40    10.0   1_655     S
Er34     Ti38    10.0   .     S
Er34     Ti62    10.0   .     S
Er34     V64    10.0   .     S
Ce35     Ti46    10.0   1_654     S
Ce35     Ti38    10.0   1_554     S
Ce35     V47    10.0   .     S
Ce35     V64    10.0   1_554     S
Ce36     Ti45    10.0   1_655     S
Ce36     Ti37    10.0   .     S
Ce36     V48    10.0   .     S
Ce36     V63    10.0   .     S
Ti37     Ce44    10.0   1_655     S
Ti38     Er17    10.0   1_556     S
Ti38     Ce35    10.0   1_556     S
Ti38     Ce43    10.0   1_656     S
V39     Er33    10.0   1_455     S
V39     Er17    10.0   1_455     S
V39     Ce43    10.0   .     S
V40     Er34    10.0   1_455     S
V40     Er18    10.0   1_455     S
V40     Ce44    10.0   .     S
Er41     V47    10.0   1_455     S
Er41     Ti45    10.0   .     S
Er41     Ti53    10.0   .     S
Er41     V55    10.0   .     S
Er42     V48    10.0   1_455     S
Er42     Ti46    10.0   .     S
Er42     Ti54    10.0   .     S
Er42     V56    10.0   .     S
Ce43     Ti38    10.0   1_454     S
Ce43     Ti46    10.0   1_554     S
Ce43     V56    10.0   1_554     S
Ce44     Ti37    10.0   1_455     S
Ce44     Ti45    10.0   .     S
Ce44     V55    10.0   .     S
Ti45     Ce36    10.0   1_455     S
Ti46     Er25    10.0   1_556     S
Ti46     Ce35    10.0   1_456     S
Ti46     Ce43    10.0   1_556     S
V47     Er41    10.0   1_655     S
V47     Er25    10.0   1_655     S
V48     Er42    10.0   1_655     S
V48     Er26    10.0   1_655     S
Er49     V55    10.0   .     S
Er49     Ti54    10.0   .     S
Er50     V56    10.0   .     S
Er50     Ti53    10.0   1_556     S
Ce51     Ti61    10.0   .     S
Ce51     Ti53    10.0   .     S
Ce51     V63    10.0   .     S
Ce51     V16    10.0   1_554     S
Ce52     Ti62    10.0   .     S
Ce52     Ti54    10.0   .     S
Ce52     V64    10.0   .     S
Ti53     Er50    10.0   1_554     S
Ti53     Ce59    10.0   .     S
Ti54     Ce60    10.0   .     S
V55     Ce59    10.0   .     S
V56     Ce43    10.0   1_556     S
V56     Ce60    10.0   .     S
Er57     V63    10.0   .     S
Er57     Ti62    10.0   .     S
Er58     V64    10.0   .     S
Er58     Ti61    10.0   1_556     S
Ce59     Ti61    10.0   .     S
Ce59     V8    10.0   1_554     S
Ce60     Ti62    10.0   .     S
Ti61     Er58    10.0   1_554     S
V64     Ce35    10.0   1_556     S
