data_cot
_audit_creation_date              2019-12-31
_audit_creation_method            'Pymatgen'
_symmetry_space_group_name_H-M    'P1'
_symmetry_Int_Tables_number       1
loop_
_symmetry_equiv_pos_as_xyz
  x,y,z
_cell_length_a                    41.3862
_cell_length_b                    41.3862
_cell_length_c                    41.3862
_cell_angle_alpha                 90.0
_cell_angle_beta                 90.0
_cell_angle_gamma                 90.0
loop_
_atom_site_label
_atom_site_type_symbol
_atom_site_fract_x
_atom_site_fract_y
_atom_site_fract_z
Ti1     Ti     0.375   0.375   0.375
Ti2     Ti     0.375   0.375   0.875
Ti3     Ti     0.375   0.875   0.375
Ti4     Ti     0.375   0.875   0.875
Ti5     Ti     0.875   0.375   0.375
Ti6     Ti     0.875   0.375   0.875
Ti7     Ti     0.875   0.875   0.375
Ti8     Ti     0.875   0.875   0.875
Er9     Er     0.0   0.0   0.0
Er10     Er     0.0   0.0   0.5
Er11     Er     0.0   0.5   0.0
Er12     Er     0.0   0.5   0.5
Er13     Er     0.5   0.0   0.0
Er14     Er     0.5   0.0   0.5
Er15     Er     0.5   0.5   0.0
Er16     Er     0.5   0.5   0.5
Ti17     Ti     0.125   0.125   0.125
Ti18     Ti     0.125   0.125   0.625
Ti19     Ti     0.125   0.625   0.125
Ti20     Ti     0.125   0.625   0.625
Ti21     Ti     0.625   0.125   0.125
Ti22     Ti     0.625   0.125   0.625
Ti23     Ti     0.625   0.625   0.125
Ti24     Ti     0.625   0.625   0.625
Er25     Er     0.25   0.25   0.0
Er26     Er     0.25   0.25   0.5
Er27     Er     0.25   0.75   0.0
Er28     Er     0.25   0.75   0.5
Er29     Er     0.75   0.25   0.0
Er30     Er     0.75   0.25   0.5
Er31     Er     0.75   0.75   0.0
Er32     Er     0.75   0.75   0.5
Er33     Er     0.0   0.25   0.25
Er34     Er     0.0   0.25   0.75
Er35     Er     0.0   0.75   0.25
Er36     Er     0.0   0.75   0.75
Er37     Er     0.5   0.25   0.25
Er38     Er     0.5   0.25   0.75
Er39     Er     0.5   0.75   0.25
Er40     Er     0.5   0.75   0.75
Er41     Er     0.25   0.0   0.25
Er42     Er     0.25   0.0   0.75
Er43     Er     0.25   0.5   0.25
Er44     Er     0.25   0.5   0.75
Er45     Er     0.75   0.0   0.25
Er46     Er     0.75   0.0   0.75
Er47     Er     0.75   0.5   0.25
Er48     Er     0.75   0.5   0.75
V49     V     0.0   0.0   0.25
V50     V     0.0   0.0   0.75
V51     V     0.0   0.5   0.25
V52     V     0.0   0.5   0.75
V53     V     0.5   0.0   0.25
V54     V     0.5   0.0   0.75
V55     V     0.5   0.5   0.25
V56     V     0.5   0.5   0.75
V57     V     0.0   0.25   0.0
V58     V     0.0   0.25   0.5
V59     V     0.0   0.75   0.0
V60     V     0.0   0.75   0.5
V61     V     0.5   0.25   0.0
V62     V     0.5   0.25   0.5
V63     V     0.5   0.75   0.0
V64     V     0.5   0.75   0.5
V65     V     0.25   0.25   0.25
V66     V     0.25   0.25   0.75
V67     V     0.25   0.75   0.25
V68     V     0.25   0.75   0.75
V69     V     0.75   0.25   0.25
V70     V     0.75   0.25   0.75
V71     V     0.75   0.75   0.25
V72     V     0.75   0.75   0.75
V73     V     0.25   0.0   0.0
V74     V     0.25   0.0   0.5
V75     V     0.25   0.5   0.0
V76     V     0.25   0.5   0.5
V77     V     0.75   0.0   0.0
V78     V     0.75   0.0   0.5
V79     V     0.75   0.5   0.0
V80     V     0.75   0.5   0.5
loop_
_geom_bond_atom_site_label_1
_geom_bond_atom_site_label_2
_geom_bond_distance
_geom_bond_site_symmetry_2
_ccdc_geom_bond_type
Ti1     Er16    8.96   .     S
Ti1     Er26    8.96   .     S
Ti1     Er37    8.96   .     S
Ti1     Er43    8.96   .     S
Ti2     Er15    8.96   1_556     S
Ti2     Er25    8.96   1_556     S
Ti2     Er38    8.96   .     S
Ti2     Er44    8.96   .     S
Ti3     Er14    8.96   1_565     S
Ti3     Er28    8.96   .     S
Ti3     Er39    8.96   .     S
Ti3     Er41    8.96   1_565     S
Ti4     Er13    8.96   1_566     S
Ti4     Er27    8.96   1_556     S
Ti4     Er40    8.96   .     S
Ti4     Er42    8.96   1_565     S
Ti5     Er12    8.96   1_655     S
Ti5     Er30    8.96   .     S
Ti5     Er33    8.96   1_655     S
Ti5     Er47    8.96   .     S
Ti6     Er11    8.96   1_656     S
Ti6     Er29    8.96   1_556     S
Ti6     Er34    8.96   1_655     S
Ti6     Er48    8.96   .     S
Ti7     Er10    8.96   1_665     S
Ti7     Er32    8.96   .     S
Ti7     Er35    8.96   1_655     S
Ti7     Er45    8.96   1_565     S
Ti8     Er9    8.96   1_666     S
Ti8     Er31    8.96   1_556     S
Ti8     Er36    8.96   1_655     S
Ti8     Er46    8.96   1_565     S
Er9     Ti8    8.96   1_444     S
Er9     Ti17    8.96   .     S
Er9     V49    10.347   .     S
Er9     V73    10.347   .     S
Er9     V57    10.347   .     S
Er9     V59    10.347   1_545     S
Er9     V77    10.347   1_455     S
Er9     V50    10.347   1_554     S
Er10     Ti7    8.96   1_445     S
Er10     Ti18    8.96   .     S
Er10     V50    10.347   .     S
Er10     V74    10.347   .     S
Er10     V58    10.347   .     S
Er10     V60    10.347   1_545     S
Er10     V78    10.347   1_455     S
Er10     V49    10.347   .     S
Er11     Ti6    8.96   1_454     S
Er11     Ti19    8.96   .     S
Er11     V51    10.347   .     S
Er11     V75    10.347   .     S
Er11     V59    10.347   .     S
Er11     V57    10.347   .     S
Er11     V79    10.347   1_455     S
Er11     V52    10.347   1_554     S
Er12     Ti5    8.96   1_455     S
Er12     Ti20    8.96   .     S
Er12     V52    10.347   .     S
Er12     V76    10.347   .     S
Er12     V60    10.347   .     S
Er12     V58    10.347   .     S
Er12     V80    10.347   1_455     S
Er12     V51    10.347   .     S
Er13     Ti4    8.96   1_544     S
Er13     Ti21    8.96   .     S
Er13     V53    10.347   .     S
Er13     V77    10.347   .     S
Er13     V61    10.347   .     S
Er13     V63    10.347   1_545     S
Er13     V73    10.347   .     S
Er13     V54    10.347   1_554     S
Er14     Ti3    8.96   1_545     S
Er14     Ti22    8.96   .     S
Er14     V54    10.347   .     S
Er14     V78    10.347   .     S
Er14     V62    10.347   .     S
Er14     V64    10.347   1_545     S
Er14     V74    10.347   .     S
Er14     V53    10.347   .     S
Er15     Ti2    8.96   1_554     S
Er15     Ti23    8.96   .     S
Er15     V55    10.347   .     S
Er15     V79    10.347   .     S
Er15     V63    10.347   .     S
Er15     V61    10.347   .     S
Er15     V75    10.347   .     S
Er15     V56    10.347   1_554     S
Er16     Ti24    8.96   .     S
Er16     V56    10.347   .     S
Er16     V80    10.347   .     S
Er16     V64    10.347   .     S
Er16     V62    10.347   .     S
Er16     V76    10.347   .     S
Er16     V55    10.347   .     S
Ti17     Er25    8.96   .     S
Ti17     Er33    8.96   .     S
Ti17     Er41    8.96   .     S
Ti18     Er26    8.96   .     S
Ti18     Er34    8.96   .     S
Ti18     Er42    8.96   .     S
Ti19     Er27    8.96   .     S
Ti19     Er35    8.96   .     S
Ti19     Er43    8.96   .     S
Ti20     Er28    8.96   .     S
Ti20     Er36    8.96   .     S
Ti20     Er44    8.96   .     S
Ti21     Er29    8.96   .     S
Ti21     Er37    8.96   .     S
Ti21     Er45    8.96   .     S
Ti22     Er30    8.96   .     S
Ti22     Er38    8.96   .     S
Ti22     Er46    8.96   .     S
Ti23     Er31    8.96   .     S
Ti23     Er39    8.96   .     S
Ti23     Er47    8.96   .     S
Ti24     Er32    8.96   .     S
Ti24     Er40    8.96   .     S
Ti24     Er48    8.96   .     S
Er25     Ti2    8.96   1_554     S
Er25     V66    10.347   1_554     S
Er25     V65    10.347   .     S
Er25     V57    10.347   .     S
Er25     V73    10.347   .     S
Er25     V75    10.347   .     S
Er25     V61    10.347   .     S
Er26     V65    10.347   .     S
Er26     V66    10.347   .     S
Er26     V58    10.347   .     S
Er26     V74    10.347   .     S
Er26     V76    10.347   .     S
Er26     V62    10.347   .     S
Er27     Ti4    8.96   1_554     S
Er27     V68    10.347   1_554     S
Er27     V67    10.347   .     S
Er27     V59    10.347   .     S
Er27     V75    10.347   .     S
Er27     V73    10.347   1_565     S
Er27     V63    10.347   .     S
Er28     V67    10.347   .     S
Er28     V68    10.347   .     S
Er28     V60    10.347   .     S
Er28     V76    10.347   .     S
Er28     V74    10.347   1_565     S
Er28     V64    10.347   .     S
Er29     Ti6    8.96   1_554     S
Er29     V70    10.347   1_554     S
Er29     V69    10.347   .     S
Er29     V61    10.347   .     S
Er29     V77    10.347   .     S
Er29     V79    10.347   .     S
Er29     V57    10.347   1_655     S
Er30     V69    10.347   .     S
Er30     V70    10.347   .     S
Er30     V62    10.347   .     S
Er30     V78    10.347   .     S
Er30     V80    10.347   .     S
Er30     V58    10.347   1_655     S
Er31     Ti8    8.96   1_554     S
Er31     V72    10.347   1_554     S
Er31     V71    10.347   .     S
Er31     V63    10.347   .     S
Er31     V79    10.347   .     S
Er31     V77    10.347   1_565     S
Er31     V59    10.347   1_655     S
Er32     V71    10.347   .     S
Er32     V72    10.347   .     S
Er32     V64    10.347   .     S
Er32     V80    10.347   .     S
Er32     V78    10.347   1_565     S
Er32     V60    10.347   1_655     S
Er33     Ti5    8.96   1_455     S
Er33     V69    10.347   1_455     S
Er33     V57    10.347   .     S
Er33     V65    10.347   .     S
Er33     V49    10.347   .     S
Er33     V58    10.347   .     S
Er33     V51    10.347   .     S
Er34     Ti6    8.96   1_455     S
Er34     V70    10.347   1_455     S
Er34     V58    10.347   .     S
Er34     V66    10.347   .     S
Er34     V50    10.347   .     S
Er34     V57    10.347   1_556     S
Er34     V52    10.347   .     S
Er35     Ti7    8.96   1_455     S
Er35     V71    10.347   1_455     S
Er35     V59    10.347   .     S
Er35     V67    10.347   .     S
Er35     V51    10.347   .     S
Er35     V60    10.347   .     S
Er35     V49    10.347   1_565     S
Er36     Ti8    8.96   1_455     S
Er36     V72    10.347   1_455     S
Er36     V60    10.347   .     S
Er36     V68    10.347   .     S
Er36     V52    10.347   .     S
Er36     V59    10.347   1_556     S
Er36     V50    10.347   1_565     S
Er37     V65    10.347   .     S
Er37     V61    10.347   .     S
Er37     V69    10.347   .     S
Er37     V53    10.347   .     S
Er37     V62    10.347   .     S
Er37     V55    10.347   .     S
Er38     V66    10.347   .     S
Er38     V62    10.347   .     S
Er38     V70    10.347   .     S
Er38     V54    10.347   .     S
Er38     V61    10.347   1_556     S
Er38     V56    10.347   .     S
Er39     V67    10.347   .     S
Er39     V63    10.347   .     S
Er39     V71    10.347   .     S
Er39     V55    10.347   .     S
Er39     V64    10.347   .     S
Er39     V53    10.347   1_565     S
Er40     V68    10.347   .     S
Er40     V64    10.347   .     S
Er40     V72    10.347   .     S
Er40     V56    10.347   .     S
Er40     V63    10.347   1_556     S
Er40     V54    10.347   1_565     S
Er41     Ti3    8.96   1_545     S
Er41     V67    10.347   1_545     S
Er41     V73    10.347   .     S
Er41     V49    10.347   .     S
Er41     V65    10.347   .     S
Er41     V74    10.347   .     S
Er41     V53    10.347   .     S
Er42     Ti4    8.96   1_545     S
Er42     V68    10.347   1_545     S
Er42     V74    10.347   .     S
Er42     V50    10.347   .     S
Er42     V66    10.347   .     S
Er42     V73    10.347   1_556     S
Er42     V54    10.347   .     S
Er43     V65    10.347   .     S
Er43     V75    10.347   .     S
Er43     V51    10.347   .     S
Er43     V67    10.347   .     S
Er43     V76    10.347   .     S
Er43     V55    10.347   .     S
Er44     V66    10.347   .     S
Er44     V76    10.347   .     S
Er44     V52    10.347   .     S
Er44     V68    10.347   .     S
Er44     V75    10.347   1_556     S
Er44     V56    10.347   .     S
Er45     Ti7    8.96   1_545     S
Er45     V71    10.347   1_545     S
Er45     V77    10.347   .     S
Er45     V53    10.347   .     S
Er45     V69    10.347   .     S
Er45     V78    10.347   .     S
Er45     V49    10.347   1_655     S
Er46     Ti8    8.96   1_545     S
Er46     V72    10.347   1_545     S
Er46     V78    10.347   .     S
Er46     V54    10.347   .     S
Er46     V70    10.347   .     S
Er46     V77    10.347   1_556     S
Er46     V50    10.347   1_655     S
Er47     V69    10.347   .     S
Er47     V79    10.347   .     S
Er47     V55    10.347   .     S
Er47     V71    10.347   .     S
Er47     V80    10.347   .     S
Er47     V51    10.347   1_655     S
Er48     V70    10.347   .     S
Er48     V80    10.347   .     S
Er48     V56    10.347   .     S
Er48     V72    10.347   .     S
Er48     V79    10.347   1_556     S
Er48     V52    10.347   1_655     S
V49     Er35    10.347   1_545     S
V49     Er45    10.347   1_455     S
V50     Er9    10.347   1_556     S
V50     Er36    10.347   1_545     S
V50     Er46    10.347   1_455     S
V51     Er47    10.347   1_455     S
V52     Er11    10.347   1_556     S
V52     Er48    10.347   1_455     S
V53     Er39    10.347   1_545     S
V54     Er13    10.347   1_556     S
V54     Er40    10.347   1_545     S
V56     Er15    10.347   1_556     S
V57     Er29    10.347   1_455     S
V57     Er34    10.347   1_554     S
V58     Er30    10.347   1_455     S
V59     Er9    10.347   1_565     S
V59     Er31    10.347   1_455     S
V59     Er36    10.347   1_554     S
V60     Er10    10.347   1_565     S
V60     Er32    10.347   1_455     S
V61     Er38    10.347   1_554     S
V63     Er13    10.347   1_565     S
V63     Er40    10.347   1_554     S
V64     Er14    10.347   1_565     S
V66     Er25    10.347   1_556     S
V67     Er41    10.347   1_565     S
V68     Er27    10.347   1_556     S
V68     Er42    10.347   1_565     S
V69     Er33    10.347   1_655     S
V70     Er29    10.347   1_556     S
V70     Er34    10.347   1_655     S
V71     Er45    10.347   1_565     S
V71     Er35    10.347   1_655     S
V72     Er31    10.347   1_556     S
V72     Er46    10.347   1_565     S
V72     Er36    10.347   1_655     S
V73     Er27    10.347   1_545     S
V73     Er42    10.347   1_554     S
V74     Er28    10.347   1_545     S
V75     Er44    10.347   1_554     S
V77     Er31    10.347   1_545     S
V77     Er9    10.347   1_655     S
V77     Er46    10.347   1_554     S
V78     Er32    10.347   1_545     S
V78     Er10    10.347   1_655     S
V79     Er11    10.347   1_655     S
V79     Er48    10.347   1_554     S
V80     Er12    10.347   1_655     S
