data_csq
_audit_creation_date              2019-12-31
_audit_creation_method            'Pymatgen'
_symmetry_space_group_name_H-M    'P1'
_symmetry_Int_Tables_number       1
loop_
_symmetry_equiv_pos_as_xyz
  x,y,z
_cell_length_a                    32.6617
_cell_length_b                    32.6617
_cell_length_c                    23.0914
_cell_angle_alpha                 90.0
_cell_angle_beta                 90.0
_cell_angle_gamma                 120.0
loop_
_atom_site_label
_atom_site_type_symbol
_atom_site_fract_x
_atom_site_fract_y
_atom_site_fract_z
V1     V     0.75   0.5   0.0
V2     V     0.75   0.5   0.5
V3     V     0.5   0.25   0.0
V4     V     0.5   0.25   0.5
V5     V     0.75   0.25   0.0
V6     V     0.75   0.25   0.5
V7     V     0.5   0.75   0.0
V8     V     0.5   0.75   0.5
V9     V     0.25   0.5   0.0
V10     V     0.25   0.5   0.5
V11     V     0.25   0.75   0.0
V12     V     0.25   0.75   0.5
Er13     Er     1.0   0.5   0.25
Er14     Er     1.0   0.5   0.75
Er15     Er     0.5   0.5   0.25
Er16     Er     0.5   0.5   0.75
Er17     Er     0.5   0.0   0.25
Er18     Er     0.5   0.0   0.75
loop_
_geom_bond_atom_site_label_1
_geom_bond_atom_site_label_2
_geom_bond_distance
_geom_bond_site_symmetry_2
_ccdc_geom_bond_type
V1     Er14    10.0   1_554     S
V1     Er15    10.0   .     S
V1     Er16    10.0   1_554     S
V1     Er13    10.0   .     S
V2     Er13    10.0   .     S
V2     Er16    10.0   .     S
V2     Er15    10.0   .     S
V2     Er14    10.0   .     S
V3     Er17    10.0   .     S
V3     Er18    10.0   1_554     S
V3     Er15    10.0   .     S
V3     Er16    10.0   1_554     S
V4     Er18    10.0   .     S
V4     Er17    10.0   .     S
V4     Er16    10.0   .     S
V4     Er15    10.0   .     S
V5     Er17    10.0   .     S
V5     Er14    10.0   1_554     S
V5     Er18    10.0   1_554     S
V5     Er13    10.0   .     S
V6     Er18    10.0   .     S
V6     Er13    10.0   .     S
V6     Er17    10.0   .     S
V6     Er14    10.0   .     S
V7     Er17    10.0   1_565     S
V7     Er15    10.0   .     S
V7     Er18    10.0   1_564     S
V7     Er16    10.0   1_554     S
V8     Er18    10.0   1_565     S
V8     Er16    10.0   .     S
V8     Er17    10.0   1_565     S
V8     Er15    10.0   .     S
V9     Er13    10.0   1_455     S
V9     Er14    10.0   1_454     S
V9     Er15    10.0   .     S
V9     Er16    10.0   1_554     S
V10     Er14    10.0   1_455     S
V10     Er13    10.0   1_455     S
V10     Er16    10.0   .     S
V10     Er15    10.0   .     S
V11     Er13    10.0   1_455     S
V11     Er14    10.0   1_454     S
V11     Er17    10.0   1_565     S
V11     Er18    10.0   1_564     S
V12     Er14    10.0   1_455     S
V12     Er13    10.0   1_455     S
V12     Er18    10.0   1_565     S
V12     Er17    10.0   1_565     S
Er13     V9    10.0   1_655     S
Er13     V11    10.0   1_655     S
Er13     V12    10.0   1_655     S
Er13     V10    10.0   1_655     S
Er14     V5    10.0   1_556     S
Er14     V1    10.0   1_556     S
Er14     V10    10.0   1_655     S
Er14     V12    10.0   1_655     S
Er14     V11    10.0   1_656     S
Er14     V9    10.0   1_656     S
Er16     V1    10.0   1_556     S
Er16     V3    10.0   1_556     S
Er16     V9    10.0   1_556     S
Er16     V7    10.0   1_556     S
Er17     V11    10.0   1_545     S
Er17     V7    10.0   1_545     S
Er17     V8    10.0   1_545     S
Er17     V12    10.0   1_545     S
Er18     V3    10.0   1_556     S
Er18     V5    10.0   1_556     S
Er18     V12    10.0   1_545     S
Er18     V8    10.0   1_545     S
Er18     V7    10.0   1_546     S
Er18     V11    10.0   1_546     S
