data_css-a
_audit_creation_date              2019-12-31
_audit_creation_method            'Pymatgen'
_symmetry_space_group_name_H-M    'P1'
_symmetry_Int_Tables_number       1
loop_
_symmetry_equiv_pos_as_xyz
  x,y,z
_cell_length_a                    31.3926
_cell_length_b                    31.3926
_cell_length_c                    50.8014
_cell_angle_alpha                 90.0
_cell_angle_beta                 90.0
_cell_angle_gamma                 90.0
loop_
_atom_site_label
_atom_site_type_symbol
_atom_site_fract_x
_atom_site_fract_y
_atom_site_fract_z
V1     V     0.1564   0.1212   0.9304
V2     V     0.1564   0.6212   0.9304
V3     V     0.6564   0.1212   0.9304
V4     V     0.6564   0.6212   0.9304
V5     V     0.3436   0.3788   0.9304
V6     V     0.3436   0.8788   0.9304
V7     V     0.8436   0.3788   0.9304
V8     V     0.8436   0.8788   0.9304
V9     V     0.1212   0.3436   0.0696
V10     V     0.1212   0.8436   0.0696
V11     V     0.6212   0.3436   0.0696
V12     V     0.6212   0.8436   0.0696
V13     V     0.3788   0.1564   0.0696
V14     V     0.3788   0.6564   0.0696
V15     V     0.8788   0.1564   0.0696
V16     V     0.8788   0.6564   0.0696
Er17     Er     0.4093   0.5   0.1804
Er18     Er     0.4093   1.0   0.1804
Er19     Er     0.9093   0.5   0.1804
Er20     Er     0.9093   1.0   0.1804
Er21     Er     0.25   0.3407   0.3196
Er22     Er     0.25   0.8407   0.3196
Er23     Er     0.75   0.3407   0.3196
Er24     Er     0.75   0.8407   0.3196
Er25     Er     0.0907   0.0   0.1804
Er26     Er     0.0907   0.5   0.1804
Er27     Er     0.5907   0.0   0.1804
Er28     Er     0.5907   0.5   0.1804
Er29     Er     0.25   0.1593   0.3196
Er30     Er     0.25   0.6593   0.3196
Er31     Er     0.75   0.1593   0.3196
Er32     Er     0.75   0.6593   0.3196
Er33     Er     0.1593   0.25   0.6804
Er34     Er     0.1593   0.75   0.6804
Er35     Er     0.6593   0.25   0.6804
Er36     Er     0.6593   0.75   0.6804
Er37     Er     0.0   0.4093   0.8196
Er38     Er     0.0   0.9093   0.8196
Er39     Er     0.5   0.4093   0.8196
Er40     Er     0.5   0.9093   0.8196
Er41     Er     0.5   0.0907   0.8196
Er42     Er     0.5   0.5907   0.8196
Er43     Er     1.0   0.0907   0.8196
Er44     Er     1.0   0.5907   0.8196
Er45     Er     0.3407   0.25   0.6804
Er46     Er     0.3407   0.75   0.6804
Er47     Er     0.8407   0.25   0.6804
Er48     Er     0.8407   0.75   0.6804
V49     V     0.1288   0.0936   0.5696
V50     V     0.1288   0.5936   0.5696
V51     V     0.6288   0.0936   0.5696
V52     V     0.6288   0.5936   0.5696
V53     V     0.0936   0.3712   0.4304
V54     V     0.0936   0.8712   0.4304
V55     V     0.5936   0.3712   0.4304
V56     V     0.5936   0.8712   0.4304
V57     V     0.3712   0.4064   0.5696
V58     V     0.3712   0.9064   0.5696
V59     V     0.8712   0.4064   0.5696
V60     V     0.8712   0.9064   0.5696
V61     V     0.4064   0.1288   0.4304
V62     V     0.4064   0.6288   0.4304
V63     V     0.9064   0.1288   0.4304
V64     V     0.9064   0.6288   0.4304
loop_
_geom_bond_atom_site_label_1
_geom_bond_atom_site_label_2
_geom_bond_distance
_geom_bond_site_symmetry_2
_ccdc_geom_bond_type
V1     V13    9.999   1_556     S
V1     V5    10.0   .     S
V1     V9    9.999   1_556     S
V1     Er38    10.002   1_545     S
V2     V14    9.999   1_556     S
V2     V6    10.0   .     S
V2     V10    9.999   1_556     S
V2     Er37    10.002   .     S
V3     V15    9.999   1_556     S
V3     V7    10.0   .     S
V3     V11    9.999   1_556     S
V3     Er40    10.002   1_545     S
V4     V16    9.999   1_556     S
V4     V8    10.0   .     S
V4     V12    9.999   1_556     S
V4     Er39    10.002   .     S
V5     V9    9.999   1_556     S
V5     V13    9.999   1_556     S
V5     Er42    10.002   .     S
V6     V10    9.999   1_556     S
V6     V14    9.999   1_556     S
V6     Er41    10.002   1_565     S
V7     V11    9.999   1_556     S
V7     V15    9.999   1_556     S
V7     Er44    10.002   .     S
V8     V12    9.999   1_556     S
V8     V16    9.999   1_556     S
V8     Er43    10.002   1_565     S
V9     V5    9.999   1_554     S
V9     V1    9.999   1_554     S
V9     V13    10.0   .     S
V9     Er19    10.002   1_455     S
V10     V6    9.999   1_554     S
V10     V2    9.999   1_554     S
V10     V14    10.0   .     S
V10     Er20    10.002   1_455     S
V11     V7    9.999   1_554     S
V11     V3    9.999   1_554     S
V11     V15    10.0   .     S
V11     Er17    10.002   .     S
V12     V8    9.999   1_554     S
V12     V4    9.999   1_554     S
V12     V16    10.0   .     S
V12     Er18    10.002   .     S
V13     V1    9.999   1_554     S
V13     V5    9.999   1_554     S
V13     Er27    10.002   .     S
V14     V2    9.999   1_554     S
V14     V6    9.999   1_554     S
V14     Er28    10.002   .     S
V15     V3    9.999   1_554     S
V15     V7    9.999   1_554     S
V15     Er25    10.002   1_655     S
V16     V4    9.999   1_554     S
V16     V8    9.999   1_554     S
V16     Er26    10.002   1_655     S
Er17     Er21    9.998   .     S
Er17     Er30    10.0   .     S
Er17     Er26    9.999   .     S
Er18     Er22    9.998   .     S
Er18     Er29    10.0   1_565     S
Er18     Er25    9.999   1_565     S
Er19     Er23    9.998   .     S
Er19     Er32    10.0   .     S
Er19     Er28    9.999   .     S
Er19     V9    10.002   1_655     S
Er20     Er24    9.998   .     S
Er20     Er31    10.0   1_565     S
Er20     Er27    9.999   1_565     S
Er20     V10    10.002   1_655     S
Er21     Er30    9.999   .     S
Er21     Er26    10.0   .     S
Er21     V61    10.002   .     S
Er22     Er29    9.999   1_565     S
Er22     Er25    10.0   1_565     S
Er22     V62    10.002   .     S
Er23     Er32    9.999   .     S
Er23     Er28    10.0   .     S
Er23     V63    10.002   .     S
Er24     Er31    9.999   1_565     S
Er24     Er27    10.0   1_565     S
Er24     V64    10.002   .     S
Er25     V15    10.002   1_455     S
Er25     Er22    10.0   1_545     S
Er25     Er18    9.999   1_545     S
Er25     Er29    9.998   .     S
Er26     V16    10.002   1_455     S
Er26     Er30    9.998   .     S
Er27     Er24    10.0   1_545     S
Er27     Er20    9.999   1_545     S
Er27     Er31    9.998   .     S
Er28     Er32    9.998   .     S
Er29     V53    10.002   .     S
Er29     Er18    10.0   1_545     S
Er29     Er22    9.999   1_545     S
Er30     V54    10.002   .     S
Er31     V55    10.002   .     S
Er31     Er20    10.0   1_545     S
Er31     Er24    9.999   1_545     S
Er32     V56    10.002   .     S
Er33     Er37    9.998   .     S
Er33     Er43    10.0   1_455     S
Er33     Er47    9.999   1_455     S
Er33     V57    10.002   .     S
Er34     Er38    9.998   .     S
Er34     Er44    10.0   1_455     S
Er34     Er48    9.999   1_455     S
Er34     V58    10.002   .     S
Er35     Er39    9.998   .     S
Er35     Er41    10.0   .     S
Er35     Er45    9.999   .     S
Er35     V59    10.002   .     S
Er36     Er40    9.998   .     S
Er36     Er42    10.0   .     S
Er36     Er46    9.999   .     S
Er36     V60    10.002   .     S
Er37     Er47    10.0   1_455     S
Er37     Er43    9.999   1_455     S
Er38     Er48    10.0   1_455     S
Er38     Er44    9.999   1_455     S
Er38     V1    10.002   1_565     S
Er39     Er45    10.0   .     S
Er39     Er41    9.999   .     S
Er40     Er46    10.0   .     S
Er40     Er42    9.999   .     S
Er40     V3    10.002   1_565     S
Er41     V6    10.002   1_545     S
Er41     Er45    9.998   .     S
Er42     Er46    9.998   .     S
Er43     V8    10.002   1_545     S
Er43     Er37    9.999   1_655     S
Er43     Er33    10.0   1_655     S
Er43     Er47    9.998   .     S
Er44     Er38    9.999   1_655     S
Er44     Er34    10.0   1_655     S
Er44     Er48    9.998   .     S
Er45     V49    10.002   .     S
Er46     V50    10.002   .     S
Er47     V51    10.002   .     S
Er47     Er37    10.0   1_655     S
Er47     Er33    9.999   1_655     S
Er48     V52    10.002   .     S
Er48     Er38    10.0   1_655     S
Er48     Er34    9.999   1_655     S
V49     V54    9.999   1_545     S
V49     V60    10.0   1_445     S
V49     V63    9.999   1_455     S
V50     V53    9.999   .     S
V50     V59    10.0   1_455     S
V50     V64    9.999   1_455     S
V51     V56    9.999   1_545     S
V51     V58    10.0   1_545     S
V51     V61    9.999   .     S
V52     V55    9.999   .     S
V52     V57    10.0   .     S
V52     V62    9.999   .     S
V53     V59    9.999   1_455     S
V53     V64    10.0   1_455     S
V54     V49    9.999   1_565     S
V54     V60    9.999   1_455     S
V54     V63    10.0   1_465     S
V55     V57    9.999   .     S
V55     V62    10.0   .     S
V56     V51    9.999   1_565     S
V56     V58    9.999   .     S
V56     V61    10.0   1_565     S
V57     V62    9.999   .     S
V58     V51    10.0   1_565     S
V58     V61    9.999   1_565     S
V59     V50    10.0   1_655     S
V59     V53    9.999   1_655     S
V59     V64    9.999   .     S
V60     V49    10.0   1_665     S
V60     V54    9.999   1_655     S
V60     V63    9.999   1_565     S
V61     V58    9.999   1_545     S
V61     V56    10.0   1_545     S
V63     V60    9.999   1_545     S
V63     V49    9.999   1_655     S
V63     V54    10.0   1_645     S
V64     V50    9.999   1_655     S
V64     V53    10.0   1_655     S
