data_cus
_audit_creation_date              2019-12-31
_audit_creation_method            'Pymatgen'
_symmetry_space_group_name_H-M    'P1'
_symmetry_Int_Tables_number       1
loop_
_symmetry_equiv_pos_as_xyz
  x,y,z
_cell_length_a                    33.7468
_cell_length_b                    41.9553
_cell_length_c                    40.8215
_cell_angle_alpha                 90.0
_cell_angle_beta                 90.0
_cell_angle_gamma                 90.0
loop_
_atom_site_label
_atom_site_type_symbol
_atom_site_fract_x
_atom_site_fract_y
_atom_site_fract_z
Er1     Er     0.0   0.3836   0.9738
Er2     Er     0.5   0.3836   0.9738
V3     V     0.25   0.302   0.6275
V4     V     0.75   0.302   0.6275
V5     V     0.25   0.302   0.8725
V6     V     0.75   0.302   0.8725
Er7     Er     0.0   0.3836   0.5262
Er8     Er     0.5   0.3836   0.5262
Er9     Er     0.0   0.6164   0.4738
Er10     Er     0.5   0.6164   0.4738
V11     V     0.25   0.698   0.1275
V12     V     0.75   0.698   0.1275
V13     V     0.25   0.698   0.3725
V14     V     0.75   0.698   0.3725
Er15     Er     0.0   0.6164   0.0262
Er16     Er     0.5   0.6164   0.0262
Er17     Er     0.25   0.8836   0.9738
Er18     Er     0.75   0.8836   0.9738
V19     V     0.0   0.802   0.6275
V20     V     0.5   0.802   0.6275
V21     V     0.0   0.802   0.8725
V22     V     0.5   0.802   0.8725
Er23     Er     0.25   0.8836   0.5262
Er24     Er     0.75   0.8836   0.5262
Er25     Er     0.25   0.1164   0.4738
Er26     Er     0.75   0.1164   0.4738
V27     V     0.0   0.198   0.1275
V28     V     0.5   0.198   0.1275
V29     V     0.0   0.198   0.3725
V30     V     0.5   0.198   0.3725
Er31     Er     0.25   0.1164   0.0262
Er32     Er     0.75   0.1164   0.0262
loop_
_geom_bond_atom_site_label_1
_geom_bond_atom_site_label_2
_geom_bond_distance
_geom_bond_site_symmetry_2
_ccdc_geom_bond_type
Er1     V27    10.0   1_556     S
Er1     V5    10.0   .     S
Er1     V6    10.0   1_455     S
Er1     Er15    10.0   1_556     S
Er2     V28    10.0   1_556     S
Er2     V6    10.0   .     S
Er2     V5    10.0   .     S
Er2     Er16    10.0   1_556     S
V3     V5    10.0   .     S
V3     Er7    10.0   .     S
V3     Er8    10.0   .     S
V3     Er25    10.0   .     S
V4     V6    10.0   .     S
V4     Er8    10.0   .     S
V4     Er7    10.0   1_655     S
V4     Er26    10.0   .     S
V5     Er31    10.0   1_556     S
V6     Er1    10.0   1_655     S
V6     Er32    10.0   1_556     S
Er7     V29    10.0   .     S
Er7     V4    10.0   1_455     S
Er7     Er9    10.0   .     S
Er8     V30    10.0   .     S
Er8     Er10    10.0   .     S
Er9     V19    10.0   .     S
Er9     V13    10.0   .     S
Er9     V14    10.0   1_455     S
Er10     V20    10.0   .     S
Er10     V14    10.0   .     S
Er10     V13    10.0   .     S
V11     V13    10.0   .     S
V11     Er15    10.0   .     S
V11     Er16    10.0   .     S
V11     Er17    10.0   1_554     S
V12     V14    10.0   .     S
V12     Er16    10.0   .     S
V12     Er15    10.0   1_655     S
V12     Er18    10.0   1_554     S
V13     Er23    10.0   .     S
V14     Er9    10.0   1_655     S
V14     Er24    10.0   .     S
Er15     V21    10.0   1_554     S
Er15     V12    10.0   1_455     S
Er15     Er1    10.0   1_554     S
Er16     V22    10.0   1_554     S
Er16     Er2    10.0   1_554     S
Er17     V11    10.0   1_556     S
Er17     V22    10.0   .     S
Er17     V21    10.0   .     S
Er17     Er31    10.0   1_566     S
Er18     V12    10.0   1_556     S
Er18     V21    10.0   1_655     S
Er18     V22    10.0   .     S
Er18     Er32    10.0   1_566     S
V19     V21    10.0   .     S
V19     Er24    10.0   1_455     S
V19     Er23    10.0   .     S
V20     V22    10.0   .     S
V20     Er23    10.0   .     S
V20     Er24    10.0   .     S
V21     Er15    10.0   1_556     S
V21     Er18    10.0   1_455     S
V22     Er16    10.0   1_556     S
Er23     Er25    10.0   1_565     S
Er24     V19    10.0   1_655     S
Er24     Er26    10.0   1_565     S
Er25     V30    10.0   .     S
Er25     V29    10.0   .     S
Er25     Er23    10.0   1_545     S
Er26     V29    10.0   1_655     S
Er26     V30    10.0   .     S
Er26     Er24    10.0   1_545     S
V27     Er1    10.0   1_554     S
V27     V29    10.0   .     S
V27     Er31    10.0   .     S
V27     Er32    10.0   1_455     S
V28     Er2    10.0   1_554     S
V28     V30    10.0   .     S
V28     Er32    10.0   .     S
V28     Er31    10.0   .     S
V29     Er26    10.0   1_455     S
Er31     V5    10.0   1_554     S
Er31     Er17    10.0   1_544     S
Er32     V6    10.0   1_554     S
Er32     V27    10.0   1_655     S
Er32     Er18    10.0   1_544     S
