data_ddi
_audit_creation_date              2019-12-31
_audit_creation_method            'Pymatgen'
_symmetry_space_group_name_H-M    'P1'
_symmetry_Int_Tables_number       1
loop_
_symmetry_equiv_pos_as_xyz
  x,y,z
_cell_length_a                    38.5406
_cell_length_b                    38.5406
_cell_length_c                    24.08
_cell_angle_alpha                 90.0
_cell_angle_beta                 90.0
_cell_angle_gamma                 90.0
loop_
_atom_site_label
_atom_site_type_symbol
_atom_site_fract_x
_atom_site_fract_y
_atom_site_fract_z
V1     V     0.0   0.125   0.175
V2     V     0.0   0.125   0.375
V3     V     0.0   0.125   0.575
V4     V     0.0   0.125   0.775
V5     V     0.0   0.125   0.975
V6     V     0.0   0.625   0.175
V7     V     0.0   0.625   0.375
V8     V     0.0   0.625   0.575
V9     V     0.0   0.625   0.775
V10     V     0.0   0.625   0.975
V11     V     0.5   0.125   0.175
V12     V     0.5   0.125   0.375
V13     V     0.5   0.125   0.575
V14     V     0.5   0.125   0.775
V15     V     0.5   0.125   0.975
V16     V     0.5   0.625   0.175
V17     V     0.5   0.625   0.375
V18     V     0.5   0.625   0.575
V19     V     0.5   0.625   0.775
V20     V     0.5   0.625   0.975
V21     V     0.0   0.375   0.025
V22     V     0.0   0.375   0.225
V23     V     0.0   0.375   0.425
V24     V     0.0   0.375   0.625
V25     V     0.0   0.375   0.825
V26     V     0.0   0.875   0.025
V27     V     0.0   0.875   0.225
V28     V     0.0   0.875   0.425
V29     V     0.0   0.875   0.625
V30     V     0.0   0.875   0.825
V31     V     0.5   0.375   0.025
V32     V     0.5   0.375   0.225
V33     V     0.5   0.375   0.425
V34     V     0.5   0.375   0.625
V35     V     0.5   0.375   0.825
V36     V     0.5   0.875   0.025
V37     V     0.5   0.875   0.225
V38     V     0.5   0.875   0.425
V39     V     0.5   0.875   0.625
V40     V     0.5   0.875   0.825
V41     V     0.25   0.125   0.125
V42     V     0.25   0.125   0.325
V43     V     0.25   0.125   0.525
V44     V     0.25   0.125   0.725
V45     V     0.25   0.125   0.925
V46     V     0.25   0.625   0.125
V47     V     0.25   0.625   0.325
V48     V     0.25   0.625   0.525
V49     V     0.25   0.625   0.725
V50     V     0.25   0.625   0.925
V51     V     0.75   0.125   0.125
V52     V     0.75   0.125   0.325
V53     V     0.75   0.125   0.525
V54     V     0.75   0.125   0.725
V55     V     0.75   0.125   0.925
V56     V     0.75   0.625   0.125
V57     V     0.75   0.625   0.325
V58     V     0.75   0.625   0.525
V59     V     0.75   0.625   0.725
V60     V     0.75   0.625   0.925
V61     V     0.25   0.375   0.075
V62     V     0.25   0.375   0.275
V63     V     0.25   0.375   0.475
V64     V     0.25   0.375   0.675
V65     V     0.25   0.375   0.875
V66     V     0.25   0.875   0.075
V67     V     0.25   0.875   0.275
V68     V     0.25   0.875   0.475
V69     V     0.25   0.875   0.675
V70     V     0.25   0.875   0.875
V71     V     0.75   0.375   0.075
V72     V     0.75   0.375   0.275
V73     V     0.75   0.375   0.475
V74     V     0.75   0.375   0.675
V75     V     0.75   0.375   0.875
V76     V     0.75   0.875   0.075
V77     V     0.75   0.875   0.275
V78     V     0.75   0.875   0.475
V79     V     0.75   0.875   0.675
V80     V     0.75   0.875   0.875
loop_
_geom_bond_atom_site_label_1
_geom_bond_atom_site_label_2
_geom_bond_distance
_geom_bond_site_symmetry_2
_ccdc_geom_bond_type
V1     V27    9.71   1_545     S
V1     V41    9.71   .     S
V1     V51    9.71   1_455     S
V1     V22    9.71   .     S
V1     V26    10.29   1_545     S
V1     V42    10.29   .     S
V1     V52    10.29   1_455     S
V1     V21    10.29   .     S
V2     V28    9.71   1_545     S
V2     V42    9.71   .     S
V2     V52    9.71   1_455     S
V2     V23    9.71   .     S
V2     V27    10.29   1_545     S
V2     V43    10.29   .     S
V2     V53    10.29   1_455     S
V2     V22    10.29   .     S
V3     V29    9.71   1_545     S
V3     V43    9.71   .     S
V3     V53    9.71   1_455     S
V3     V24    9.71   .     S
V3     V28    10.29   1_545     S
V3     V44    10.29   .     S
V3     V54    10.29   1_455     S
V3     V23    10.29   .     S
V4     V30    9.71   1_545     S
V4     V44    9.71   .     S
V4     V54    9.71   1_455     S
V4     V25    9.71   .     S
V4     V29    10.29   1_545     S
V4     V45    10.29   .     S
V4     V55    10.29   1_455     S
V4     V24    10.29   .     S
V5     V26    9.71   1_546     S
V5     V45    9.71   .     S
V5     V55    9.71   1_455     S
V5     V21    9.71   1_556     S
V5     V30    10.29   1_545     S
V5     V41    10.29   1_556     S
V5     V51    10.29   1_456     S
V5     V25    10.29   .     S
V6     V22    9.71   .     S
V6     V46    9.71   .     S
V6     V56    9.71   1_455     S
V6     V27    9.71   .     S
V6     V21    10.29   .     S
V6     V47    10.29   .     S
V6     V57    10.29   1_455     S
V6     V26    10.29   .     S
V7     V23    9.71   .     S
V7     V47    9.71   .     S
V7     V57    9.71   1_455     S
V7     V28    9.71   .     S
V7     V22    10.29   .     S
V7     V48    10.29   .     S
V7     V58    10.29   1_455     S
V7     V27    10.29   .     S
V8     V24    9.71   .     S
V8     V48    9.71   .     S
V8     V58    9.71   1_455     S
V8     V29    9.71   .     S
V8     V23    10.29   .     S
V8     V49    10.29   .     S
V8     V59    10.29   1_455     S
V8     V28    10.29   .     S
V9     V25    9.71   .     S
V9     V49    9.71   .     S
V9     V59    9.71   1_455     S
V9     V30    9.71   .     S
V9     V24    10.29   .     S
V9     V50    10.29   .     S
V9     V60    10.29   1_455     S
V9     V29    10.29   .     S
V10     V21    9.71   1_556     S
V10     V50    9.71   .     S
V10     V60    9.71   1_455     S
V10     V26    9.71   1_556     S
V10     V25    10.29   .     S
V10     V46    10.29   1_556     S
V10     V56    10.29   1_456     S
V10     V30    10.29   .     S
V11     V37    9.71   1_545     S
V11     V51    9.71   .     S
V11     V41    9.71   .     S
V11     V32    9.71   .     S
V11     V36    10.29   1_545     S
V11     V52    10.29   .     S
V11     V42    10.29   .     S
V11     V31    10.29   .     S
V12     V38    9.71   1_545     S
V12     V52    9.71   .     S
V12     V42    9.71   .     S
V12     V33    9.71   .     S
V12     V37    10.29   1_545     S
V12     V53    10.29   .     S
V12     V43    10.29   .     S
V12     V32    10.29   .     S
V13     V39    9.71   1_545     S
V13     V53    9.71   .     S
V13     V43    9.71   .     S
V13     V34    9.71   .     S
V13     V38    10.29   1_545     S
V13     V54    10.29   .     S
V13     V44    10.29   .     S
V13     V33    10.29   .     S
V14     V40    9.71   1_545     S
V14     V54    9.71   .     S
V14     V44    9.71   .     S
V14     V35    9.71   .     S
V14     V39    10.29   1_545     S
V14     V55    10.29   .     S
V14     V45    10.29   .     S
V14     V34    10.29   .     S
V15     V36    9.71   1_546     S
V15     V55    9.71   .     S
V15     V45    9.71   .     S
V15     V31    9.71   1_556     S
V15     V40    10.29   1_545     S
V15     V51    10.29   1_556     S
V15     V41    10.29   1_556     S
V15     V35    10.29   .     S
V16     V32    9.71   .     S
V16     V56    9.71   .     S
V16     V46    9.71   .     S
V16     V37    9.71   .     S
V16     V31    10.29   .     S
V16     V57    10.29   .     S
V16     V47    10.29   .     S
V16     V36    10.29   .     S
V17     V33    9.71   .     S
V17     V57    9.71   .     S
V17     V47    9.71   .     S
V17     V38    9.71   .     S
V17     V32    10.29   .     S
V17     V58    10.29   .     S
V17     V48    10.29   .     S
V17     V37    10.29   .     S
V18     V34    9.71   .     S
V18     V58    9.71   .     S
V18     V48    9.71   .     S
V18     V39    9.71   .     S
V18     V33    10.29   .     S
V18     V59    10.29   .     S
V18     V49    10.29   .     S
V18     V38    10.29   .     S
V19     V35    9.71   .     S
V19     V59    9.71   .     S
V19     V49    9.71   .     S
V19     V40    9.71   .     S
V19     V34    10.29   .     S
V19     V60    10.29   .     S
V19     V50    10.29   .     S
V19     V39    10.29   .     S
V20     V31    9.71   1_556     S
V20     V60    9.71   .     S
V20     V50    9.71   .     S
V20     V36    9.71   1_556     S
V20     V35    10.29   .     S
V20     V56    10.29   1_556     S
V20     V46    10.29   1_556     S
V20     V40    10.29   .     S
V21     V10    9.71   1_554     S
V21     V61    9.71   .     S
V21     V71    9.71   1_455     S
V21     V5    9.71   1_554     S
V21     V65    10.29   1_554     S
V21     V75    10.29   1_454     S
V22     V62    9.71   .     S
V22     V72    9.71   1_455     S
V22     V61    10.29   .     S
V22     V71    10.29   1_455     S
V23     V63    9.71   .     S
V23     V73    9.71   1_455     S
V23     V62    10.29   .     S
V23     V72    10.29   1_455     S
V24     V64    9.71   .     S
V24     V74    9.71   1_455     S
V24     V63    10.29   .     S
V24     V73    10.29   1_455     S
V25     V65    9.71   .     S
V25     V75    9.71   1_455     S
V25     V64    10.29   .     S
V25     V74    10.29   1_455     S
V26     V5    9.71   1_564     S
V26     V66    9.71   .     S
V26     V76    9.71   1_455     S
V26     V10    9.71   1_554     S
V26     V1    10.29   1_565     S
V26     V70    10.29   1_554     S
V26     V80    10.29   1_454     S
V27     V1    9.71   1_565     S
V27     V67    9.71   .     S
V27     V77    9.71   1_455     S
V27     V2    10.29   1_565     S
V27     V66    10.29   .     S
V27     V76    10.29   1_455     S
V28     V2    9.71   1_565     S
V28     V68    9.71   .     S
V28     V78    9.71   1_455     S
V28     V3    10.29   1_565     S
V28     V67    10.29   .     S
V28     V77    10.29   1_455     S
V29     V3    9.71   1_565     S
V29     V69    9.71   .     S
V29     V79    9.71   1_455     S
V29     V4    10.29   1_565     S
V29     V68    10.29   .     S
V29     V78    10.29   1_455     S
V30     V4    9.71   1_565     S
V30     V70    9.71   .     S
V30     V80    9.71   1_455     S
V30     V5    10.29   1_565     S
V30     V69    10.29   .     S
V30     V79    10.29   1_455     S
V31     V20    9.71   1_554     S
V31     V71    9.71   .     S
V31     V61    9.71   .     S
V31     V15    9.71   1_554     S
V31     V75    10.29   1_554     S
V31     V65    10.29   1_554     S
V32     V72    9.71   .     S
V32     V62    9.71   .     S
V32     V71    10.29   .     S
V32     V61    10.29   .     S
V33     V73    9.71   .     S
V33     V63    9.71   .     S
V33     V72    10.29   .     S
V33     V62    10.29   .     S
V34     V74    9.71   .     S
V34     V64    9.71   .     S
V34     V73    10.29   .     S
V34     V63    10.29   .     S
V35     V75    9.71   .     S
V35     V65    9.71   .     S
V35     V74    10.29   .     S
V35     V64    10.29   .     S
V36     V15    9.71   1_564     S
V36     V76    9.71   .     S
V36     V66    9.71   .     S
V36     V20    9.71   1_554     S
V36     V11    10.29   1_565     S
V36     V80    10.29   1_554     S
V36     V70    10.29   1_554     S
V37     V11    9.71   1_565     S
V37     V77    9.71   .     S
V37     V67    9.71   .     S
V37     V12    10.29   1_565     S
V37     V76    10.29   .     S
V37     V66    10.29   .     S
V38     V12    9.71   1_565     S
V38     V78    9.71   .     S
V38     V68    9.71   .     S
V38     V13    10.29   1_565     S
V38     V77    10.29   .     S
V38     V67    10.29   .     S
V39     V13    9.71   1_565     S
V39     V79    9.71   .     S
V39     V69    9.71   .     S
V39     V14    10.29   1_565     S
V39     V78    10.29   .     S
V39     V68    10.29   .     S
V40     V14    9.71   1_565     S
V40     V80    9.71   .     S
V40     V70    9.71   .     S
V40     V15    10.29   1_565     S
V40     V79    10.29   .     S
V40     V69    10.29   .     S
V41     V66    9.71   1_545     S
V41     V61    9.71   .     S
V41     V67    10.29   1_545     S
V41     V62    10.29   .     S
V41     V5    10.29   1_554     S
V41     V15    10.29   1_554     S
V42     V67    9.71   1_545     S
V42     V62    9.71   .     S
V42     V68    10.29   1_545     S
V42     V63    10.29   .     S
V43     V68    9.71   1_545     S
V43     V63    9.71   .     S
V43     V69    10.29   1_545     S
V43     V64    10.29   .     S
V44     V69    9.71   1_545     S
V44     V64    9.71   .     S
V44     V70    10.29   1_545     S
V44     V65    10.29   .     S
V45     V70    9.71   1_545     S
V45     V65    9.71   .     S
V45     V66    10.29   1_546     S
V45     V61    10.29   1_556     S
V46     V61    9.71   .     S
V46     V66    9.71   .     S
V46     V62    10.29   .     S
V46     V67    10.29   .     S
V46     V10    10.29   1_554     S
V46     V20    10.29   1_554     S
V47     V62    9.71   .     S
V47     V67    9.71   .     S
V47     V63    10.29   .     S
V47     V68    10.29   .     S
V48     V63    9.71   .     S
V48     V68    9.71   .     S
V48     V64    10.29   .     S
V48     V69    10.29   .     S
V49     V64    9.71   .     S
V49     V69    9.71   .     S
V49     V65    10.29   .     S
V49     V70    10.29   .     S
V50     V65    9.71   .     S
V50     V70    9.71   .     S
V50     V61    10.29   1_556     S
V50     V66    10.29   1_556     S
V51     V76    9.71   1_545     S
V51     V71    9.71   .     S
V51     V1    9.71   1_655     S
V51     V77    10.29   1_545     S
V51     V72    10.29   .     S
V51     V15    10.29   1_554     S
V51     V5    10.29   1_654     S
V52     V77    9.71   1_545     S
V52     V72    9.71   .     S
V52     V2    9.71   1_655     S
V52     V78    10.29   1_545     S
V52     V73    10.29   .     S
V52     V1    10.29   1_655     S
V53     V78    9.71   1_545     S
V53     V73    9.71   .     S
V53     V3    9.71   1_655     S
V53     V79    10.29   1_545     S
V53     V74    10.29   .     S
V53     V2    10.29   1_655     S
V54     V79    9.71   1_545     S
V54     V74    9.71   .     S
V54     V4    9.71   1_655     S
V54     V80    10.29   1_545     S
V54     V75    10.29   .     S
V54     V3    10.29   1_655     S
V55     V80    9.71   1_545     S
V55     V75    9.71   .     S
V55     V5    9.71   1_655     S
V55     V76    10.29   1_546     S
V55     V71    10.29   1_556     S
V55     V4    10.29   1_655     S
V56     V71    9.71   .     S
V56     V76    9.71   .     S
V56     V6    9.71   1_655     S
V56     V72    10.29   .     S
V56     V77    10.29   .     S
V56     V20    10.29   1_554     S
V56     V10    10.29   1_654     S
V57     V72    9.71   .     S
V57     V77    9.71   .     S
V57     V7    9.71   1_655     S
V57     V73    10.29   .     S
V57     V78    10.29   .     S
V57     V6    10.29   1_655     S
V58     V73    9.71   .     S
V58     V78    9.71   .     S
V58     V8    9.71   1_655     S
V58     V74    10.29   .     S
V58     V79    10.29   .     S
V58     V7    10.29   1_655     S
V59     V74    9.71   .     S
V59     V79    9.71   .     S
V59     V9    9.71   1_655     S
V59     V75    10.29   .     S
V59     V80    10.29   .     S
V59     V8    10.29   1_655     S
V60     V75    9.71   .     S
V60     V80    9.71   .     S
V60     V10    9.71   1_655     S
V60     V71    10.29   1_556     S
V60     V76    10.29   1_556     S
V60     V9    10.29   1_655     S
V61     V50    10.29   1_554     S
V61     V45    10.29   1_554     S
V65     V21    10.29   1_556     S
V65     V31    10.29   1_556     S
V66     V41    9.71   1_565     S
V66     V45    10.29   1_564     S
V66     V50    10.29   1_554     S
V67     V42    9.71   1_565     S
V67     V41    10.29   1_565     S
V68     V43    9.71   1_565     S
V68     V42    10.29   1_565     S
V69     V44    9.71   1_565     S
V69     V43    10.29   1_565     S
V70     V45    9.71   1_565     S
V70     V44    10.29   1_565     S
V70     V26    10.29   1_556     S
V70     V36    10.29   1_556     S
V71     V21    9.71   1_655     S
V71     V60    10.29   1_554     S
V71     V55    10.29   1_554     S
V71     V22    10.29   1_655     S
V72     V22    9.71   1_655     S
V72     V23    10.29   1_655     S
V73     V23    9.71   1_655     S
V73     V24    10.29   1_655     S
V74     V24    9.71   1_655     S
V74     V25    10.29   1_655     S
V75     V25    9.71   1_655     S
V75     V31    10.29   1_556     S
V75     V21    10.29   1_656     S
V76     V51    9.71   1_565     S
V76     V26    9.71   1_655     S
V76     V55    10.29   1_564     S
V76     V60    10.29   1_554     S
V76     V27    10.29   1_655     S
V77     V52    9.71   1_565     S
V77     V27    9.71   1_655     S
V77     V51    10.29   1_565     S
V77     V28    10.29   1_655     S
V78     V53    9.71   1_565     S
V78     V28    9.71   1_655     S
V78     V52    10.29   1_565     S
V78     V29    10.29   1_655     S
V79     V54    9.71   1_565     S
V79     V29    9.71   1_655     S
V79     V53    10.29   1_565     S
V79     V30    10.29   1_655     S
V80     V55    9.71   1_565     S
V80     V30    9.71   1_655     S
V80     V54    10.29   1_565     S
V80     V36    10.29   1_556     S
V80     V26    10.29   1_656     S
