data_deh-d
_audit_creation_date              2019-12-31
_audit_creation_method            'Pymatgen'
_symmetry_space_group_name_H-M    'P1'
_symmetry_Int_Tables_number       1
loop_
_symmetry_equiv_pos_as_xyz
  x,y,z
_cell_length_a                    35.5354
_cell_length_b                    35.5354
_cell_length_c                    27.5256
_cell_angle_alpha                 90.0
_cell_angle_beta                 90.0
_cell_angle_gamma                 90.0
loop_
_atom_site_label
_atom_site_type_symbol
_atom_site_fract_x
_atom_site_fract_y
_atom_site_fract_z
V1     V     0.25   0.375   0.2917
V2     V     0.25   0.375   0.625
V3     V     0.25   0.375   0.9583
V4     V     0.25   0.875   0.2917
V5     V     0.25   0.875   0.625
V6     V     0.25   0.875   0.9583
V7     V     0.75   0.375   0.2917
V8     V     0.75   0.375   0.625
V9     V     0.75   0.375   0.9583
V10     V     0.75   0.875   0.2917
V11     V     0.75   0.875   0.625
V12     V     0.75   0.875   0.9583
V13     V     0.0   0.375   0.2083
V14     V     0.0   0.375   0.5417
V15     V     0.0   0.375   0.875
V16     V     0.0   0.875   0.2083
V17     V     0.0   0.875   0.5417
V18     V     0.0   0.875   0.875
V19     V     0.5   0.375   0.2083
V20     V     0.5   0.375   0.5417
V21     V     0.5   0.375   0.875
V22     V     0.5   0.875   0.2083
V23     V     0.5   0.875   0.5417
V24     V     0.5   0.875   0.875
V25     V     0.25   0.125   0.0417
V26     V     0.25   0.125   0.375
V27     V     0.25   0.125   0.7083
V28     V     0.25   0.625   0.0417
V29     V     0.25   0.625   0.375
V30     V     0.25   0.625   0.7083
V31     V     0.75   0.125   0.0417
V32     V     0.75   0.125   0.375
V33     V     0.75   0.125   0.7083
V34     V     0.75   0.625   0.0417
V35     V     0.75   0.625   0.375
V36     V     0.75   0.625   0.7083
V37     V     0.0   0.125   0.125
V38     V     0.0   0.125   0.4583
V39     V     0.0   0.125   0.7917
V40     V     0.0   0.625   0.125
V41     V     0.0   0.625   0.4583
V42     V     0.0   0.625   0.7917
V43     V     0.5   0.125   0.125
V44     V     0.5   0.125   0.4583
V45     V     0.5   0.125   0.7917
V46     V     0.5   0.625   0.125
V47     V     0.5   0.625   0.4583
V48     V     0.5   0.625   0.7917
loop_
_geom_bond_atom_site_label_1
_geom_bond_atom_site_label_2
_geom_bond_distance
_geom_bond_site_symmetry_2
_ccdc_geom_bond_type
V1     V29    9.175   .     S
V1     V26    9.175   .     S
V1     V13    9.175   .     S
V1     V3    9.175   1_554     S
V1     V2    9.175   .     S
V1     V19    9.175   .     S
V1     V28    11.237   .     S
V1     V25    11.237   .     S
V1     V14    11.237   .     S
V1     V20    11.237   .     S
V2     V30    9.175   .     S
V2     V27    9.175   .     S
V2     V14    9.175   .     S
V2     V3    9.175   .     S
V2     V20    9.175   .     S
V2     V29    11.237   .     S
V2     V26    11.237   .     S
V2     V15    11.237   .     S
V2     V21    11.237   .     S
V3     V28    9.175   1_556     S
V3     V25    9.175   1_556     S
V3     V15    9.175   .     S
V3     V1    9.175   1_556     S
V3     V21    9.175   .     S
V3     V30    11.237   .     S
V3     V27    11.237   .     S
V3     V13    11.237   1_556     S
V3     V19    11.237   1_556     S
V4     V26    9.175   1_565     S
V4     V29    9.175   .     S
V4     V16    9.175   .     S
V4     V6    9.175   1_554     S
V4     V5    9.175   .     S
V4     V22    9.175   .     S
V4     V25    11.237   1_565     S
V4     V28    11.237   .     S
V4     V17    11.237   .     S
V4     V23    11.237   .     S
V5     V27    9.175   1_565     S
V5     V30    9.175   .     S
V5     V17    9.175   .     S
V5     V6    9.175   .     S
V5     V23    9.175   .     S
V5     V26    11.237   1_565     S
V5     V29    11.237   .     S
V5     V18    11.237   .     S
V5     V24    11.237   .     S
V6     V25    9.175   1_566     S
V6     V28    9.175   1_556     S
V6     V18    9.175   .     S
V6     V4    9.175   1_556     S
V6     V24    9.175   .     S
V6     V27    11.237   1_565     S
V6     V30    11.237   .     S
V6     V16    11.237   1_556     S
V6     V22    11.237   1_556     S
V7     V35    9.175   .     S
V7     V32    9.175   .     S
V7     V19    9.175   .     S
V7     V9    9.175   1_554     S
V7     V8    9.175   .     S
V7     V13    9.175   1_655     S
V7     V34    11.237   .     S
V7     V31    11.237   .     S
V7     V20    11.237   .     S
V7     V14    11.237   1_655     S
V8     V36    9.175   .     S
V8     V33    9.175   .     S
V8     V20    9.175   .     S
V8     V9    9.175   .     S
V8     V14    9.175   1_655     S
V8     V35    11.237   .     S
V8     V32    11.237   .     S
V8     V21    11.237   .     S
V8     V15    11.237   1_655     S
V9     V34    9.175   1_556     S
V9     V31    9.175   1_556     S
V9     V21    9.175   .     S
V9     V7    9.175   1_556     S
V9     V15    9.175   1_655     S
V9     V36    11.237   .     S
V9     V33    11.237   .     S
V9     V19    11.237   1_556     S
V9     V13    11.237   1_656     S
V10     V32    9.175   1_565     S
V10     V35    9.175   .     S
V10     V22    9.175   .     S
V10     V12    9.175   1_554     S
V10     V11    9.175   .     S
V10     V16    9.175   1_655     S
V10     V31    11.237   1_565     S
V10     V34    11.237   .     S
V10     V23    11.237   .     S
V10     V17    11.237   1_655     S
V11     V33    9.175   1_565     S
V11     V36    9.175   .     S
V11     V23    9.175   .     S
V11     V12    9.175   .     S
V11     V17    9.175   1_655     S
V11     V32    11.237   1_565     S
V11     V35    11.237   .     S
V11     V24    11.237   .     S
V11     V18    11.237   1_655     S
V12     V31    9.175   1_566     S
V12     V34    9.175   1_556     S
V12     V24    9.175   .     S
V12     V10    9.175   1_556     S
V12     V18    9.175   1_655     S
V12     V33    11.237   1_565     S
V12     V36    11.237   .     S
V12     V22    11.237   1_556     S
V12     V16    11.237   1_656     S
V13     V40    9.175   .     S
V13     V15    9.175   1_554     S
V13     V14    9.175   .     S
V13     V7    9.175   1_455     S
V13     V37    9.175   .     S
V13     V41    11.237   .     S
V13     V3    11.237   1_554     S
V13     V9    11.237   1_454     S
V13     V38    11.237   .     S
V14     V41    9.175   .     S
V14     V15    9.175   .     S
V14     V8    9.175   1_455     S
V14     V38    9.175   .     S
V14     V42    11.237   .     S
V14     V7    11.237   1_455     S
V14     V39    11.237   .     S
V15     V42    9.175   .     S
V15     V13    9.175   1_556     S
V15     V9    9.175   1_455     S
V15     V39    9.175   .     S
V15     V40    11.237   1_556     S
V15     V8    11.237   1_455     S
V15     V37    11.237   1_556     S
V16     V37    9.175   1_565     S
V16     V18    9.175   1_554     S
V16     V17    9.175   .     S
V16     V10    9.175   1_455     S
V16     V40    9.175   .     S
V16     V38    11.237   1_565     S
V16     V6    11.237   1_554     S
V16     V12    11.237   1_454     S
V16     V41    11.237   .     S
V17     V38    9.175   1_565     S
V17     V18    9.175   .     S
V17     V11    9.175   1_455     S
V17     V41    9.175   .     S
V17     V39    11.237   1_565     S
V17     V10    11.237   1_455     S
V17     V42    11.237   .     S
V18     V39    9.175   1_565     S
V18     V16    9.175   1_556     S
V18     V12    9.175   1_455     S
V18     V42    9.175   .     S
V18     V37    11.237   1_566     S
V18     V11    11.237   1_455     S
V18     V40    11.237   1_556     S
V19     V46    9.175   .     S
V19     V21    9.175   1_554     S
V19     V20    9.175   .     S
V19     V43    9.175   .     S
V19     V47    11.237   .     S
V19     V9    11.237   1_554     S
V19     V3    11.237   1_554     S
V19     V44    11.237   .     S
V20     V47    9.175   .     S
V20     V21    9.175   .     S
V20     V44    9.175   .     S
V20     V48    11.237   .     S
V20     V45    11.237   .     S
V21     V48    9.175   .     S
V21     V19    9.175   1_556     S
V21     V45    9.175   .     S
V21     V46    11.237   1_556     S
V21     V43    11.237   1_556     S
V22     V43    9.175   1_565     S
V22     V24    9.175   1_554     S
V22     V23    9.175   .     S
V22     V46    9.175   .     S
V22     V44    11.237   1_565     S
V22     V12    11.237   1_554     S
V22     V6    11.237   1_554     S
V22     V47    11.237   .     S
V23     V44    9.175   1_565     S
V23     V24    9.175   .     S
V23     V47    9.175   .     S
V23     V45    11.237   1_565     S
V23     V48    11.237   .     S
V24     V45    9.175   1_565     S
V24     V22    9.175   1_556     S
V24     V48    9.175   .     S
V24     V43    11.237   1_566     S
V24     V46    11.237   1_556     S
V25     V6    9.175   1_544     S
V25     V3    9.175   1_554     S
V25     V37    9.175   .     S
V25     V26    9.175   .     S
V25     V27    9.175   1_554     S
V25     V43    9.175   .     S
V25     V4    11.237   1_545     S
V25     V39    11.237   1_554     S
V25     V45    11.237   1_554     S
V26     V4    9.175   1_545     S
V26     V38    9.175   .     S
V26     V27    9.175   .     S
V26     V44    9.175   .     S
V26     V5    11.237   1_545     S
V26     V37    11.237   .     S
V26     V43    11.237   .     S
V27     V5    9.175   1_545     S
V27     V39    9.175   .     S
V27     V25    9.175   1_556     S
V27     V45    9.175   .     S
V27     V6    11.237   1_545     S
V27     V38    11.237   .     S
V27     V44    11.237   .     S
V28     V3    9.175   1_554     S
V28     V6    9.175   1_554     S
V28     V40    9.175   .     S
V28     V29    9.175   .     S
V28     V30    9.175   1_554     S
V28     V46    9.175   .     S
V28     V42    11.237   1_554     S
V28     V48    11.237   1_554     S
V29     V41    9.175   .     S
V29     V30    9.175   .     S
V29     V47    9.175   .     S
V29     V40    11.237   .     S
V29     V46    11.237   .     S
V30     V42    9.175   .     S
V30     V28    9.175   1_556     S
V30     V48    9.175   .     S
V30     V41    11.237   .     S
V30     V47    11.237   .     S
V31     V12    9.175   1_544     S
V31     V9    9.175   1_554     S
V31     V43    9.175   .     S
V31     V32    9.175   .     S
V31     V33    9.175   1_554     S
V31     V37    9.175   1_655     S
V31     V10    11.237   1_545     S
V31     V45    11.237   1_554     S
V31     V39    11.237   1_654     S
V32     V10    9.175   1_545     S
V32     V44    9.175   .     S
V32     V33    9.175   .     S
V32     V38    9.175   1_655     S
V32     V11    11.237   1_545     S
V32     V43    11.237   .     S
V32     V37    11.237   1_655     S
V33     V11    9.175   1_545     S
V33     V45    9.175   .     S
V33     V31    9.175   1_556     S
V33     V39    9.175   1_655     S
V33     V12    11.237   1_545     S
V33     V44    11.237   .     S
V33     V38    11.237   1_655     S
V34     V9    9.175   1_554     S
V34     V12    9.175   1_554     S
V34     V46    9.175   .     S
V34     V35    9.175   .     S
V34     V36    9.175   1_554     S
V34     V40    9.175   1_655     S
V34     V48    11.237   1_554     S
V34     V42    11.237   1_654     S
V35     V47    9.175   .     S
V35     V36    9.175   .     S
V35     V41    9.175   1_655     S
V35     V46    11.237   .     S
V35     V40    11.237   1_655     S
V36     V48    9.175   .     S
V36     V34    9.175   1_556     S
V36     V42    9.175   1_655     S
V36     V47    11.237   .     S
V36     V41    11.237   1_655     S
V37     V16    9.175   1_545     S
V37     V38    9.175   .     S
V37     V39    9.175   1_554     S
V37     V31    9.175   1_455     S
V37     V18    11.237   1_544     S
V37     V15    11.237   1_554     S
V37     V32    11.237   1_455     S
V38     V17    9.175   1_545     S
V38     V39    9.175   .     S
V38     V32    9.175   1_455     S
V38     V16    11.237   1_545     S
V38     V33    11.237   1_455     S
V39     V18    9.175   1_545     S
V39     V37    9.175   1_556     S
V39     V33    9.175   1_455     S
V39     V17    11.237   1_545     S
V39     V25    11.237   1_556     S
V39     V31    11.237   1_456     S
V40     V41    9.175   .     S
V40     V42    9.175   1_554     S
V40     V34    9.175   1_455     S
V40     V15    11.237   1_554     S
V40     V18    11.237   1_554     S
V40     V35    11.237   1_455     S
V41     V42    9.175   .     S
V41     V35    9.175   1_455     S
V41     V36    11.237   1_455     S
V42     V40    9.175   1_556     S
V42     V36    9.175   1_455     S
V42     V28    11.237   1_556     S
V42     V34    11.237   1_456     S
V43     V22    9.175   1_545     S
V43     V44    9.175   .     S
V43     V45    9.175   1_554     S
V43     V24    11.237   1_544     S
V43     V21    11.237   1_554     S
V44     V23    9.175   1_545     S
V44     V45    9.175   .     S
V44     V22    11.237   1_545     S
V45     V24    9.175   1_545     S
V45     V43    9.175   1_556     S
V45     V23    11.237   1_545     S
V45     V31    11.237   1_556     S
V45     V25    11.237   1_556     S
V46     V47    9.175   .     S
V46     V48    9.175   1_554     S
V46     V21    11.237   1_554     S
V46     V24    11.237   1_554     S
V47     V48    9.175   .     S
V48     V46    9.175   1_556     S
V48     V34    11.237   1_556     S
V48     V28    11.237   1_556     S
