data_dgp
_audit_creation_date              2019-12-31
_audit_creation_method            'Pymatgen'
_symmetry_space_group_name_H-M    'P1'
_symmetry_Int_Tables_number       1
loop_
_symmetry_equiv_pos_as_xyz
  x,y,z
_cell_length_a                    24.4509
_cell_length_b                    24.4509
_cell_length_c                    38.0808
_cell_angle_alpha                 90.0
_cell_angle_beta                 90.0
_cell_angle_gamma                 90.0
loop_
_atom_site_label
_atom_site_type_symbol
_atom_site_fract_x
_atom_site_fract_y
_atom_site_fract_z
Er1     Er     0.0   0.5   0.125
Er2     Er     0.0   0.5   0.625
Er3     Er     0.0   0.5   0.375
Er4     Er     0.0   0.5   0.875
Er5     Er     0.5   0.0   0.125
Er6     Er     0.5   0.0   0.625
Er7     Er     0.5   0.0   0.375
Er8     Er     0.5   0.0   0.875
V9     V     0.2955   0.7045   0.25
V10     V     0.2955   0.7045   0.75
V11     V     0.7045   0.2955   0.25
V12     V     0.7045   0.2955   0.75
V13     V     0.7045   0.7045   0.25
V14     V     0.7045   0.7045   0.75
V15     V     0.7955   0.2045   0.0
V16     V     0.7955   0.2045   0.5
V17     V     0.2045   0.7955   0.0
V18     V     0.2045   0.7955   0.5
V19     V     0.2045   0.2045   0.0
V20     V     0.2045   0.2045   0.5
V21     V     0.7955   0.7955   0.0
V22     V     0.7955   0.7955   0.5
V23     V     0.2955   0.2955   0.25
V24     V     0.2955   0.2955   0.75
loop_
_geom_bond_atom_site_label_1
_geom_bond_atom_site_label_2
_geom_bond_distance
_geom_bond_site_symmetry_2
_ccdc_geom_bond_type
Er1     V13    9.993   1_455     S
Er1     V23    9.993   .     S
Er1     V11    9.993   1_455     S
Er1     V9    9.993   .     S
Er1     V15    9.993   1_455     S
Er1     V17    9.993   .     S
Er1     V21    9.993   1_455     S
Er1     V19    9.993   .     S
Er2     V14    9.993   1_455     S
Er2     V24    9.993   .     S
Er2     V12    9.993   1_455     S
Er2     V10    9.993   .     S
Er2     V16    9.993   1_455     S
Er2     V18    9.993   .     S
Er2     V22    9.993   1_455     S
Er2     V20    9.993   .     S
Er3     V13    9.993   1_455     S
Er3     V23    9.993   .     S
Er3     V11    9.993   1_455     S
Er3     V9    9.993   .     S
Er3     V16    9.993   1_455     S
Er3     V18    9.993   .     S
Er3     V22    9.993   1_455     S
Er3     V20    9.993   .     S
Er4     V14    9.993   1_455     S
Er4     V24    9.993   .     S
Er4     V12    9.993   1_455     S
Er4     V10    9.993   .     S
Er4     V15    9.993   1_456     S
Er4     V17    9.993   1_556     S
Er4     V21    9.993   1_456     S
Er4     V19    9.993   1_556     S
Er5     V13    9.993   1_545     S
Er5     V9    9.993   1_545     S
Er5     V11    9.993   .     S
Er5     V23    9.993   .     S
Er5     V21    9.993   1_545     S
Er5     V17    9.993   1_545     S
Er5     V15    9.993   .     S
Er5     V19    9.993   .     S
Er6     V14    9.993   1_545     S
Er6     V10    9.993   1_545     S
Er6     V12    9.993   .     S
Er6     V24    9.993   .     S
Er6     V22    9.993   1_545     S
Er6     V18    9.993   1_545     S
Er6     V16    9.993   .     S
Er6     V20    9.993   .     S
Er7     V13    9.993   1_545     S
Er7     V9    9.993   1_545     S
Er7     V11    9.993   .     S
Er7     V23    9.993   .     S
Er7     V22    9.993   1_545     S
Er7     V18    9.993   1_545     S
Er7     V16    9.993   .     S
Er7     V20    9.993   .     S
Er8     V14    9.993   1_545     S
Er8     V10    9.993   1_545     S
Er8     V12    9.993   .     S
Er8     V24    9.993   .     S
Er8     V21    9.993   1_546     S
Er8     V17    9.993   1_546     S
Er8     V15    9.993   1_556     S
Er8     V19    9.993   1_556     S
V9     V17    10.027   .     S
V9     V18    10.027   .     S
V9     Er5    9.993   1_565     S
V9     Er7    9.993   1_565     S
V9     V13    9.999   .     S
V9     V23    9.999   .     S
V10     V18    10.027   .     S
V10     V17    10.027   1_556     S
V10     Er6    9.993   1_565     S
V10     Er8    9.993   1_565     S
V10     V14    9.999   .     S
V10     V24    9.999   .     S
V11     V15    10.027   .     S
V11     V16    10.027   .     S
V11     Er3    9.993   1_655     S
V11     Er1    9.993   1_655     S
V11     V13    9.999   .     S
V11     V23    9.999   .     S
V12     V16    10.027   .     S
V12     V15    10.027   1_556     S
V12     Er4    9.993   1_655     S
V12     Er2    9.993   1_655     S
V12     V14    9.999   .     S
V12     V24    9.999   .     S
V13     V21    10.027   .     S
V13     V22    10.027   .     S
V13     Er7    9.993   1_565     S
V13     Er5    9.993   1_565     S
V13     Er1    9.993   1_655     S
V13     Er3    9.993   1_655     S
V14     V22    10.027   .     S
V14     V21    10.027   1_556     S
V14     Er8    9.993   1_565     S
V14     Er6    9.993   1_565     S
V14     Er2    9.993   1_655     S
V14     Er4    9.993   1_655     S
V15     V12    10.027   1_554     S
V15     Er4    9.993   1_654     S
V15     Er1    9.993   1_655     S
V15     Er8    9.993   1_554     S
V15     V19    9.999   1_655     S
V15     V21    9.999   1_545     S
V16     Er3    9.993   1_655     S
V16     Er2    9.993   1_655     S
V16     V20    9.999   1_655     S
V16     V22    9.999   1_545     S
V17     V10    10.027   1_554     S
V17     Er5    9.993   1_565     S
V17     Er8    9.993   1_564     S
V17     Er4    9.993   1_554     S
V17     V19    9.999   1_565     S
V17     V21    9.999   1_455     S
V18     Er6    9.993   1_565     S
V18     Er7    9.993   1_565     S
V18     V20    9.999   1_565     S
V18     V22    9.999   1_455     S
V19     V24    10.027   1_554     S
V19     V23    10.027   .     S
V19     Er8    9.993   1_554     S
V19     Er4    9.993   1_554     S
V19     V17    9.999   1_545     S
V19     V15    9.999   1_455     S
V20     V23    10.027   .     S
V20     V24    10.027   .     S
V20     V18    9.999   1_545     S
V20     V16    9.999   1_455     S
V21     V14    10.027   1_554     S
V21     Er8    9.993   1_564     S
V21     Er5    9.993   1_565     S
V21     Er1    9.993   1_655     S
V21     Er4    9.993   1_654     S
V21     V15    9.999   1_565     S
V21     V17    9.999   1_655     S
V22     Er7    9.993   1_565     S
V22     Er6    9.993   1_565     S
V22     Er2    9.993   1_655     S
V22     Er3    9.993   1_655     S
V22     V16    9.999   1_565     S
V22     V18    9.999   1_655     S
V24     V19    10.027   1_556     S
