data_dia-x
_audit_creation_date              2019-12-31
_audit_creation_method            'Pymatgen'
_symmetry_space_group_name_H-M    'P1'
_symmetry_Int_Tables_number       1
loop_
_symmetry_equiv_pos_as_xyz
  x,y,z
_cell_length_a                    31.3194
_cell_length_b                    31.3194
_cell_length_c                    31.3194
_cell_angle_alpha                 90.0
_cell_angle_beta                 90.0
_cell_angle_gamma                 90.0
loop_
_atom_site_label
_atom_site_type_symbol
_atom_site_fract_x
_atom_site_fract_y
_atom_site_fract_z
V1     V     0.0625   0.0625   0.3125
V2     V     0.0625   0.0625   0.8125
V3     V     0.0625   0.5625   0.3125
V4     V     0.0625   0.5625   0.8125
V5     V     0.5625   0.0625   0.3125
V6     V     0.5625   0.0625   0.8125
V7     V     0.5625   0.5625   0.3125
V8     V     0.5625   0.5625   0.8125
V9     V     0.1875   0.1875   0.1875
V10     V     0.1875   0.1875   0.6875
V11     V     0.1875   0.6875   0.1875
V12     V     0.1875   0.6875   0.6875
V13     V     0.6875   0.1875   0.1875
V14     V     0.6875   0.1875   0.6875
V15     V     0.6875   0.6875   0.1875
V16     V     0.6875   0.6875   0.6875
V17     V     0.1875   0.4375   0.4375
V18     V     0.1875   0.4375   0.9375
V19     V     0.1875   0.9375   0.4375
V20     V     0.1875   0.9375   0.9375
V21     V     0.6875   0.4375   0.4375
V22     V     0.6875   0.4375   0.9375
V23     V     0.6875   0.9375   0.4375
V24     V     0.6875   0.9375   0.9375
V25     V     0.3125   0.0625   0.0625
V26     V     0.3125   0.0625   0.5625
V27     V     0.3125   0.5625   0.0625
V28     V     0.3125   0.5625   0.5625
V29     V     0.8125   0.0625   0.0625
V30     V     0.8125   0.0625   0.5625
V31     V     0.8125   0.5625   0.0625
V32     V     0.8125   0.5625   0.5625
V33     V     0.0625   0.3125   0.0625
V34     V     0.0625   0.3125   0.5625
V35     V     0.0625   0.8125   0.0625
V36     V     0.0625   0.8125   0.5625
V37     V     0.5625   0.3125   0.0625
V38     V     0.5625   0.3125   0.5625
V39     V     0.5625   0.8125   0.0625
V40     V     0.5625   0.8125   0.5625
V41     V     0.4375   0.4375   0.1875
V42     V     0.4375   0.4375   0.6875
V43     V     0.4375   0.9375   0.1875
V44     V     0.4375   0.9375   0.6875
V45     V     0.9375   0.4375   0.1875
V46     V     0.9375   0.4375   0.6875
V47     V     0.9375   0.9375   0.1875
V48     V     0.9375   0.9375   0.6875
V49     V     0.4375   0.1875   0.4375
V50     V     0.4375   0.1875   0.9375
V51     V     0.4375   0.6875   0.4375
V52     V     0.4375   0.6875   0.9375
V53     V     0.9375   0.1875   0.4375
V54     V     0.9375   0.1875   0.9375
V55     V     0.9375   0.6875   0.4375
V56     V     0.9375   0.6875   0.9375
V57     V     0.3125   0.3125   0.3125
V58     V     0.3125   0.3125   0.8125
V59     V     0.3125   0.8125   0.3125
V60     V     0.3125   0.8125   0.8125
V61     V     0.8125   0.3125   0.3125
V62     V     0.8125   0.3125   0.8125
V63     V     0.8125   0.8125   0.3125
V64     V     0.8125   0.8125   0.8125
loop_
_geom_bond_atom_site_label_1
_geom_bond_atom_site_label_2
_geom_bond_distance
_geom_bond_site_symmetry_2
_ccdc_geom_bond_type
V1     V9    6.781   .     S
V1     V19    6.781   1_545     S
V1     V47    6.781   1_445     S
V1     V53    6.781   1_455     S
V1     V35    11.073   1_545     S
V1     V34    11.073   .     S
V1     V26    11.073   .     S
V1     V25    11.073   .     S
V1     V59    11.073   1_545     S
V1     V29    11.073   1_455     S
V1     V33    11.073   .     S
V1     V57    11.073   .     S
V1     V63    11.073   1_445     S
V1     V30    11.073   1_455     S
V1     V36    11.073   1_545     S
V1     V61    11.073   1_455     S
V2     V10    6.781   .     S
V2     V20    6.781   1_545     S
V2     V48    6.781   1_445     S
V2     V54    6.781   1_455     S
V2     V36    11.073   1_545     S
V2     V33    11.073   1_556     S
V2     V25    11.073   1_556     S
V2     V26    11.073   .     S
V2     V60    11.073   1_545     S
V2     V30    11.073   1_455     S
V2     V34    11.073   .     S
V2     V58    11.073   .     S
V2     V64    11.073   1_445     S
V2     V29    11.073   1_456     S
V2     V35    11.073   1_546     S
V2     V62    11.073   1_455     S
V3     V11    6.781   .     S
V3     V17    6.781   .     S
V3     V45    6.781   1_455     S
V3     V55    6.781   1_455     S
V3     V33    11.073   .     S
V3     V36    11.073   .     S
V3     V28    11.073   .     S
V3     V27    11.073   .     S
V3     V57    11.073   .     S
V3     V31    11.073   1_455     S
V3     V35    11.073   .     S
V3     V59    11.073   .     S
V3     V61    11.073   1_455     S
V3     V32    11.073   1_455     S
V3     V34    11.073   .     S
V3     V63    11.073   1_455     S
V4     V12    6.781   .     S
V4     V18    6.781   .     S
V4     V46    6.781   1_455     S
V4     V56    6.781   1_455     S
V4     V34    11.073   .     S
V4     V35    11.073   1_556     S
V4     V27    11.073   1_556     S
V4     V28    11.073   .     S
V4     V58    11.073   .     S
V4     V32    11.073   1_455     S
V4     V36    11.073   .     S
V4     V60    11.073   .     S
V4     V62    11.073   1_455     S
V4     V31    11.073   1_456     S
V4     V33    11.073   1_556     S
V4     V64    11.073   1_455     S
V5     V13    6.781   .     S
V5     V23    6.781   1_545     S
V5     V43    6.781   1_545     S
V5     V49    6.781   .     S
V5     V39    11.073   1_545     S
V5     V38    11.073   .     S
V5     V30    11.073   .     S
V5     V29    11.073   .     S
V5     V63    11.073   1_545     S
V5     V25    11.073   .     S
V5     V37    11.073   .     S
V5     V61    11.073   .     S
V5     V59    11.073   1_545     S
V5     V26    11.073   .     S
V5     V40    11.073   1_545     S
V5     V57    11.073   .     S
V6     V14    6.781   .     S
V6     V24    6.781   1_545     S
V6     V44    6.781   1_545     S
V6     V50    6.781   .     S
V6     V40    11.073   1_545     S
V6     V37    11.073   1_556     S
V6     V29    11.073   1_556     S
V6     V30    11.073   .     S
V6     V64    11.073   1_545     S
V6     V26    11.073   .     S
V6     V38    11.073   .     S
V6     V62    11.073   .     S
V6     V60    11.073   1_545     S
V6     V25    11.073   1_556     S
V6     V39    11.073   1_546     S
V6     V58    11.073   .     S
V7     V15    6.781   .     S
V7     V21    6.781   .     S
V7     V41    6.781   .     S
V7     V51    6.781   .     S
V7     V37    11.073   .     S
V7     V40    11.073   .     S
V7     V32    11.073   .     S
V7     V31    11.073   .     S
V7     V61    11.073   .     S
V7     V27    11.073   .     S
V7     V39    11.073   .     S
V7     V63    11.073   .     S
V7     V57    11.073   .     S
V7     V28    11.073   .     S
V7     V38    11.073   .     S
V7     V59    11.073   .     S
V8     V16    6.781   .     S
V8     V22    6.781   .     S
V8     V42    6.781   .     S
V8     V52    6.781   .     S
V8     V38    11.073   .     S
V8     V39    11.073   1_556     S
V8     V31    11.073   1_556     S
V8     V32    11.073   .     S
V8     V62    11.073   .     S
V8     V28    11.073   .     S
V8     V40    11.073   .     S
V8     V64    11.073   .     S
V8     V58    11.073   .     S
V8     V27    11.073   1_556     S
V8     V37    11.073   1_556     S
V8     V60    11.073   .     S
V9     V25    6.781   .     S
V9     V33    6.781   .     S
V9     V57    6.781   .     S
V9     V53    11.073   1_455     S
V9     V50    11.073   1_554     S
V9     V41    11.073   .     S
V9     V43    11.073   1_545     S
V9     V18    11.073   1_554     S
V9     V19    11.073   1_545     S
V9     V49    11.073   .     S
V9     V54    11.073   1_454     S
V9     V45    11.073   1_455     S
V9     V47    11.073   1_445     S
V9     V17    11.073   .     S
V9     V20    11.073   1_544     S
V10     V26    6.781   .     S
V10     V34    6.781   .     S
V10     V58    6.781   .     S
V10     V54    11.073   1_455     S
V10     V49    11.073   .     S
V10     V42    11.073   .     S
V10     V44    11.073   1_545     S
V10     V17    11.073   .     S
V10     V20    11.073   1_545     S
V10     V50    11.073   .     S
V10     V53    11.073   1_455     S
V10     V46    11.073   1_455     S
V10     V48    11.073   1_445     S
V10     V18    11.073   .     S
V10     V19    11.073   1_545     S
V11     V27    6.781   .     S
V11     V35    6.781   .     S
V11     V59    6.781   .     S
V11     V55    11.073   1_455     S
V11     V52    11.073   1_554     S
V11     V43    11.073   .     S
V11     V41    11.073   .     S
V11     V20    11.073   1_554     S
V11     V17    11.073   .     S
V11     V51    11.073   .     S
V11     V56    11.073   1_454     S
V11     V47    11.073   1_455     S
V11     V45    11.073   1_455     S
V11     V19    11.073   .     S
V11     V18    11.073   1_554     S
V12     V28    6.781   .     S
V12     V36    6.781   .     S
V12     V60    6.781   .     S
V12     V56    11.073   1_455     S
V12     V51    11.073   .     S
V12     V44    11.073   .     S
V12     V42    11.073   .     S
V12     V19    11.073   .     S
V12     V18    11.073   .     S
V12     V52    11.073   .     S
V12     V55    11.073   1_455     S
V12     V48    11.073   1_455     S
V12     V46    11.073   1_455     S
V12     V20    11.073   .     S
V12     V17    11.073   .     S
V13     V29    6.781   .     S
V13     V37    6.781   .     S
V13     V61    6.781   .     S
V13     V49    11.073   .     S
V13     V54    11.073   1_554     S
V13     V45    11.073   .     S
V13     V47    11.073   1_545     S
V13     V22    11.073   1_554     S
V13     V23    11.073   1_545     S
V13     V53    11.073   .     S
V13     V50    11.073   1_554     S
V13     V41    11.073   .     S
V13     V43    11.073   1_545     S
V13     V21    11.073   .     S
V13     V24    11.073   1_544     S
V14     V30    6.781   .     S
V14     V38    6.781   .     S
V14     V62    6.781   .     S
V14     V50    11.073   .     S
V14     V53    11.073   .     S
V14     V46    11.073   .     S
V14     V48    11.073   1_545     S
V14     V21    11.073   .     S
V14     V24    11.073   1_545     S
V14     V54    11.073   .     S
V14     V49    11.073   .     S
V14     V42    11.073   .     S
V14     V44    11.073   1_545     S
V14     V22    11.073   .     S
V14     V23    11.073   1_545     S
V15     V31    6.781   .     S
V15     V39    6.781   .     S
V15     V63    6.781   .     S
V15     V51    11.073   .     S
V15     V56    11.073   1_554     S
V15     V47    11.073   .     S
V15     V45    11.073   .     S
V15     V24    11.073   1_554     S
V15     V21    11.073   .     S
V15     V55    11.073   .     S
V15     V52    11.073   1_554     S
V15     V43    11.073   .     S
V15     V41    11.073   .     S
V15     V23    11.073   .     S
V15     V22    11.073   1_554     S
V16     V32    6.781   .     S
V16     V40    6.781   .     S
V16     V64    6.781   .     S
V16     V52    11.073   .     S
V16     V55    11.073   .     S
V16     V48    11.073   .     S
V16     V46    11.073   .     S
V16     V23    11.073   .     S
V16     V22    11.073   .     S
V16     V56    11.073   .     S
V16     V51    11.073   .     S
V16     V44    11.073   .     S
V16     V42    11.073   .     S
V16     V24    11.073   .     S
V16     V21    11.073   .     S
V17     V28    6.781   .     S
V17     V57    6.781   .     S
V17     V34    6.781   .     S
V17     V42    11.073   .     S
V17     V45    11.073   1_455     S
V17     V55    11.073   1_455     S
V17     V41    11.073   .     S
V17     V53    11.073   1_455     S
V17     V49    11.073   .     S
V17     V51    11.073   .     S
V17     V46    11.073   1_455     S
V18     V27    6.781   1_556     S
V18     V58    6.781   .     S
V18     V33    6.781   1_556     S
V18     V41    11.073   1_556     S
V18     V46    11.073   1_455     S
V18     V56    11.073   1_455     S
V18     V9    11.073   1_556     S
V18     V42    11.073   .     S
V18     V54    11.073   1_455     S
V18     V50    11.073   .     S
V18     V52    11.073   .     S
V18     V45    11.073   1_456     S
V18     V11    11.073   1_556     S
V19     V1    6.781   1_565     S
V19     V26    6.781   1_565     S
V19     V59    6.781   .     S
V19     V36    6.781   .     S
V19     V44    11.073   .     S
V19     V47    11.073   1_455     S
V19     V53    11.073   1_465     S
V19     V9    11.073   1_565     S
V19     V43    11.073   .     S
V19     V55    11.073   1_455     S
V19     V51    11.073   .     S
V19     V49    11.073   1_565     S
V19     V48    11.073   1_455     S
V19     V10    11.073   1_565     S
V20     V2    6.781   1_565     S
V20     V25    6.781   1_566     S
V20     V60    6.781   .     S
V20     V35    6.781   1_556     S
V20     V43    11.073   1_556     S
V20     V48    11.073   1_455     S
V20     V54    11.073   1_465     S
V20     V11    11.073   1_556     S
V20     V10    11.073   1_565     S
V20     V44    11.073   .     S
V20     V56    11.073   1_455     S
V20     V52    11.073   .     S
V20     V50    11.073   1_565     S
V20     V47    11.073   1_456     S
V20     V9    11.073   1_566     S
V21     V32    6.781   .     S
V21     V61    6.781   .     S
V21     V38    6.781   .     S
V21     V46    11.073   .     S
V21     V41    11.073   .     S
V21     V51    11.073   .     S
V21     V45    11.073   .     S
V21     V49    11.073   .     S
V21     V53    11.073   .     S
V21     V55    11.073   .     S
V21     V42    11.073   .     S
V22     V31    6.781   1_556     S
V22     V62    6.781   .     S
V22     V37    6.781   1_556     S
V22     V45    11.073   1_556     S
V22     V42    11.073   .     S
V22     V52    11.073   .     S
V22     V13    11.073   1_556     S
V22     V46    11.073   .     S
V22     V50    11.073   .     S
V22     V54    11.073   .     S
V22     V56    11.073   .     S
V22     V41    11.073   1_556     S
V22     V15    11.073   1_556     S
V23     V5    6.781   1_565     S
V23     V30    6.781   1_565     S
V23     V63    6.781   .     S
V23     V40    6.781   .     S
V23     V48    11.073   .     S
V23     V43    11.073   .     S
V23     V49    11.073   1_565     S
V23     V13    11.073   1_565     S
V23     V47    11.073   .     S
V23     V51    11.073   .     S
V23     V55    11.073   .     S
V23     V53    11.073   1_565     S
V23     V44    11.073   .     S
V23     V14    11.073   1_565     S
V24     V6    6.781   1_565     S
V24     V29    6.781   1_566     S
V24     V64    6.781   .     S
V24     V39    6.781   1_556     S
V24     V47    11.073   1_556     S
V24     V44    11.073   .     S
V24     V50    11.073   1_565     S
V24     V15    11.073   1_556     S
V24     V14    11.073   1_565     S
V24     V48    11.073   .     S
V24     V52    11.073   .     S
V24     V56    11.073   .     S
V24     V54    11.073   1_565     S
V24     V43    11.073   1_556     S
V24     V13    11.073   1_566     S
V25     V20    6.781   1_544     S
V25     V50    6.781   1_554     S
V25     V43    6.781   1_545     S
V25     V58    11.073   1_554     S
V25     V59    11.073   1_545     S
V25     V2    11.073   1_554     S
V25     V37    11.073   .     S
V25     V33    11.073   .     S
V25     V35    11.073   1_545     S
V25     V39    11.073   1_545     S
V25     V6    11.073   1_554     S
V25     V60    11.073   1_544     S
V25     V57    11.073   .     S
V26     V19    6.781   1_545     S
V26     V49    6.781   .     S
V26     V44    6.781   1_545     S
V26     V57    11.073   .     S
V26     V60    11.073   1_545     S
V26     V38    11.073   .     S
V26     V34    11.073   .     S
V26     V36    11.073   1_545     S
V26     V40    11.073   1_545     S
V26     V59    11.073   1_545     S
V26     V58    11.073   .     S
V27     V18    6.781   1_554     S
V27     V52    6.781   1_554     S
V27     V41    6.781   .     S
V27     V60    11.073   1_554     S
V27     V57    11.073   .     S
V27     V4    11.073   1_554     S
V27     V39    11.073   .     S
V27     V35    11.073   .     S
V27     V33    11.073   .     S
V27     V37    11.073   .     S
V27     V8    11.073   1_554     S
V27     V58    11.073   1_554     S
V27     V59    11.073   .     S
V28     V51    6.781   .     S
V28     V42    6.781   .     S
V28     V59    11.073   .     S
V28     V58    11.073   .     S
V28     V40    11.073   .     S
V28     V36    11.073   .     S
V28     V34    11.073   .     S
V28     V38    11.073   .     S
V28     V57    11.073   .     S
V28     V60    11.073   .     S
V29     V24    6.781   1_544     S
V29     V54    6.781   1_554     S
V29     V47    6.781   1_545     S
V29     V62    11.073   1_554     S
V29     V63    11.073   1_545     S
V29     V6    11.073   1_554     S
V29     V33    11.073   1_655     S
V29     V37    11.073   .     S
V29     V39    11.073   1_545     S
V29     V1    11.073   1_655     S
V29     V35    11.073   1_645     S
V29     V2    11.073   1_654     S
V29     V64    11.073   1_544     S
V29     V61    11.073   .     S
V30     V23    6.781   1_545     S
V30     V53    6.781   .     S
V30     V48    6.781   1_545     S
V30     V61    11.073   .     S
V30     V64    11.073   1_545     S
V30     V34    11.073   1_655     S
V30     V38    11.073   .     S
V30     V40    11.073   1_545     S
V30     V2    11.073   1_655     S
V30     V36    11.073   1_645     S
V30     V1    11.073   1_655     S
V30     V63    11.073   1_545     S
V30     V62    11.073   .     S
V31     V22    6.781   1_554     S
V31     V56    6.781   1_554     S
V31     V45    6.781   .     S
V31     V64    11.073   1_554     S
V31     V61    11.073   .     S
V31     V8    11.073   1_554     S
V31     V35    11.073   1_655     S
V31     V39    11.073   .     S
V31     V37    11.073   .     S
V31     V3    11.073   1_655     S
V31     V33    11.073   1_655     S
V31     V4    11.073   1_654     S
V31     V62    11.073   1_554     S
V31     V63    11.073   .     S
V32     V55    6.781   .     S
V32     V46    6.781   .     S
V32     V63    11.073   .     S
V32     V62    11.073   .     S
V32     V36    11.073   1_655     S
V32     V40    11.073   .     S
V32     V38    11.073   .     S
V32     V4    11.073   1_655     S
V32     V34    11.073   1_655     S
V32     V3    11.073   1_655     S
V32     V61    11.073   .     S
V32     V64    11.073   .     S
V33     V45    6.781   1_455     S
V33     V54    6.781   1_454     S
V33     V18    6.781   1_554     S
V33     V2    11.073   1_554     S
V33     V29    11.073   1_455     S
V33     V61    11.073   1_455     S
V33     V58    11.073   1_554     S
V33     V31    11.073   1_455     S
V33     V57    11.073   .     S
V33     V62    11.073   1_454     S
V33     V4    11.073   1_554     S
V34     V46    6.781   1_455     S
V34     V53    6.781   1_455     S
V34     V30    11.073   1_455     S
V34     V62    11.073   1_455     S
V34     V57    11.073   .     S
V34     V32    11.073   1_455     S
V34     V58    11.073   .     S
V34     V61    11.073   1_455     S
V35     V47    6.781   1_455     S
V35     V56    6.781   1_454     S
V35     V20    6.781   1_554     S
V35     V1    11.073   1_565     S
V35     V4    11.073   1_554     S
V35     V31    11.073   1_455     S
V35     V25    11.073   1_565     S
V35     V63    11.073   1_455     S
V35     V60    11.073   1_554     S
V35     V29    11.073   1_465     S
V35     V59    11.073   .     S
V35     V64    11.073   1_454     S
V35     V2    11.073   1_564     S
V36     V48    6.781   1_455     S
V36     V55    6.781   1_455     S
V36     V2    11.073   1_565     S
V36     V32    11.073   1_455     S
V36     V26    11.073   1_565     S
V36     V64    11.073   1_455     S
V36     V59    11.073   .     S
V36     V30    11.073   1_465     S
V36     V60    11.073   .     S
V36     V63    11.073   1_455     S
V36     V1    11.073   1_565     S
V37     V41    6.781   .     S
V37     V50    6.781   1_554     S
V37     V22    6.781   1_554     S
V37     V6    11.073   1_554     S
V37     V57    11.073   .     S
V37     V62    11.073   1_554     S
V37     V61    11.073   .     S
V37     V58    11.073   1_554     S
V37     V8    11.073   1_554     S
V38     V42    6.781   .     S
V38     V49    6.781   .     S
V38     V58    11.073   .     S
V38     V61    11.073   .     S
V38     V62    11.073   .     S
V38     V57    11.073   .     S
V39     V43    6.781   .     S
V39     V52    6.781   1_554     S
V39     V24    6.781   1_554     S
V39     V5    11.073   1_565     S
V39     V8    11.073   1_554     S
V39     V29    11.073   1_565     S
V39     V59    11.073   .     S
V39     V64    11.073   1_554     S
V39     V25    11.073   1_565     S
V39     V63    11.073   .     S
V39     V60    11.073   1_554     S
V39     V6    11.073   1_564     S
V40     V44    6.781   .     S
V40     V51    6.781   .     S
V40     V6    11.073   1_565     S
V40     V30    11.073   1_565     S
V40     V60    11.073   .     S
V40     V63    11.073   .     S
V40     V26    11.073   1_565     S
V40     V64    11.073   .     S
V40     V59    11.073   .     S
V40     V5    11.073   1_565     S
V41     V57    6.781   .     S
V41     V18    11.073   1_554     S
V41     V50    11.073   1_554     S
V41     V49    11.073   .     S
V41     V51    11.073   .     S
V41     V22    11.073   1_554     S
V41     V52    11.073   1_554     S
V42     V58    6.781   .     S
V42     V49    11.073   .     S
V42     V50    11.073   .     S
V42     V52    11.073   .     S
V42     V51    11.073   .     S
V43     V59    6.781   .     S
V43     V25    6.781   1_565     S
V43     V5    6.781   1_565     S
V43     V20    11.073   1_554     S
V43     V52    11.073   1_554     S
V43     V51    11.073   .     S
V43     V9    11.073   1_565     S
V43     V49    11.073   1_565     S
V43     V24    11.073   1_554     S
V43     V50    11.073   1_564     S
V43     V13    11.073   1_565     S
V44     V60    6.781   .     S
V44     V26    6.781   1_565     S
V44     V6    6.781   1_565     S
V44     V51    11.073   .     S
V44     V52    11.073   .     S
V44     V10    11.073   1_565     S
V44     V50    11.073   1_565     S
V44     V49    11.073   1_565     S
V44     V14    11.073   1_565     S
V45     V33    6.781   1_655     S
V45     V61    6.781   .     S
V45     V3    6.781   1_655     S
V45     V22    11.073   1_554     S
V45     V17    11.073   1_655     S
V45     V54    11.073   1_554     S
V45     V53    11.073   .     S
V45     V55    11.073   .     S
V45     V18    11.073   1_654     S
V45     V56    11.073   1_554     S
V45     V9    11.073   1_655     S
V45     V11    11.073   1_655     S
V46     V34    6.781   1_655     S
V46     V62    6.781   .     S
V46     V4    6.781   1_655     S
V46     V18    11.073   1_655     S
V46     V53    11.073   .     S
V46     V54    11.073   .     S
V46     V56    11.073   .     S
V46     V17    11.073   1_655     S
V46     V55    11.073   .     S
V46     V10    11.073   1_655     S
V46     V12    11.073   1_655     S
V47     V35    6.781   1_655     S
V47     V63    6.781   .     S
V47     V29    6.781   1_565     S
V47     V1    6.781   1_665     S
V47     V24    11.073   1_554     S
V47     V19    11.073   1_655     S
V47     V56    11.073   1_554     S
V47     V55    11.073   .     S
V47     V13    11.073   1_565     S
V47     V53    11.073   1_565     S
V47     V20    11.073   1_654     S
V47     V54    11.073   1_564     S
V47     V11    11.073   1_655     S
V47     V9    11.073   1_665     S
V48     V36    6.781   1_655     S
V48     V64    6.781   .     S
V48     V30    6.781   1_565     S
V48     V2    6.781   1_665     S
V48     V20    11.073   1_655     S
V48     V55    11.073   .     S
V48     V56    11.073   .     S
V48     V14    11.073   1_565     S
V48     V54    11.073   1_565     S
V48     V19    11.073   1_655     S
V48     V53    11.073   1_565     S
V48     V12    11.073   1_655     S
V48     V10    11.073   1_665     S
V49     V57    6.781   .     S
V49     V23    11.073   1_545     S
V49     V43    11.073   1_545     S
V49     V19    11.073   1_545     S
V49     V44    11.073   1_545     S
V50     V37    6.781   1_556     S
V50     V58    6.781   .     S
V50     V25    6.781   1_556     S
V50     V9    11.073   1_556     S
V50     V41    11.073   1_556     S
V50     V24    11.073   1_545     S
V50     V44    11.073   1_545     S
V50     V20    11.073   1_545     S
V50     V13    11.073   1_556     S
V50     V43    11.073   1_546     S
V51     V59    6.781   .     S
V52     V39    6.781   1_556     S
V52     V60    6.781   .     S
V52     V27    6.781   1_556     S
V52     V11    11.073   1_556     S
V52     V43    11.073   1_556     S
V52     V15    11.073   1_556     S
V52     V41    11.073   1_556     S
V53     V34    6.781   1_655     S
V53     V61    6.781   .     S
V53     V1    6.781   1_655     S
V53     V9    11.073   1_655     S
V53     V19    11.073   1_645     S
V53     V47    11.073   1_545     S
V53     V17    11.073   1_655     S
V53     V23    11.073   1_545     S
V53     V10    11.073   1_655     S
V53     V48    11.073   1_545     S
V54     V33    6.781   1_656     S
V54     V62    6.781   .     S
V54     V29    6.781   1_556     S
V54     V2    6.781   1_655     S
V54     V10    11.073   1_655     S
V54     V13    11.073   1_556     S
V54     V45    11.073   1_556     S
V54     V20    11.073   1_645     S
V54     V48    11.073   1_545     S
V54     V18    11.073   1_655     S
V54     V24    11.073   1_545     S
V54     V9    11.073   1_656     S
V54     V47    11.073   1_546     S
V55     V36    6.781   1_655     S
V55     V63    6.781   .     S
V55     V3    6.781   1_655     S
V55     V11    11.073   1_655     S
V55     V17    11.073   1_655     S
V55     V19    11.073   1_655     S
V55     V12    11.073   1_655     S
V56     V35    6.781   1_656     S
V56     V64    6.781   .     S
V56     V31    6.781   1_556     S
V56     V4    6.781   1_655     S
V56     V12    11.073   1_655     S
V56     V15    11.073   1_556     S
V56     V47    11.073   1_556     S
V56     V18    11.073   1_655     S
V56     V20    11.073   1_655     S
V56     V11    11.073   1_656     S
V56     V45    11.073   1_556     S
V58     V25    11.073   1_556     S
V58     V33    11.073   1_556     S
V58     V37    11.073   1_556     S
V58     V27    11.073   1_556     S
V59     V25    11.073   1_565     S
V59     V1    11.073   1_565     S
V59     V5    11.073   1_565     S
V59     V26    11.073   1_565     S
V60     V27    11.073   1_556     S
V60     V26    11.073   1_565     S
V60     V2    11.073   1_565     S
V60     V35    11.073   1_556     S
V60     V6    11.073   1_565     S
V60     V39    11.073   1_556     S
V60     V25    11.073   1_566     S
V61     V33    11.073   1_655     S
V61     V3    11.073   1_655     S
V61     V34    11.073   1_655     S
V61     V1    11.073   1_655     S
V62     V29    11.073   1_556     S
V62     V34    11.073   1_655     S
V62     V37    11.073   1_556     S
V62     V4    11.073   1_655     S
V62     V33    11.073   1_656     S
V62     V2    11.073   1_655     S
V62     V31    11.073   1_556     S
V63     V29    11.073   1_565     S
V63     V5    11.073   1_565     S
V63     V35    11.073   1_655     S
V63     V1    11.073   1_665     S
V63     V36    11.073   1_655     S
V63     V3    11.073   1_655     S
V63     V30    11.073   1_565     S
V64     V31    11.073   1_556     S
V64     V30    11.073   1_565     S
V64     V6    11.073   1_565     S
V64     V36    11.073   1_655     S
V64     V39    11.073   1_556     S
V64     V2    11.073   1_665     S
V64     V35    11.073   1_656     S
V64     V4    11.073   1_655     S
V64     V29    11.073   1_566     S
