data_dmf
_audit_creation_date              2019-12-31
_audit_creation_method            'Pymatgen'
_symmetry_space_group_name_H-M    'P1'
_symmetry_Int_Tables_number       1
loop_
_symmetry_equiv_pos_as_xyz
  x,y,z
_cell_length_a                    41.6412
_cell_length_b                    37.5246
_cell_length_c                    37.9044
_cell_angle_alpha                 90.0
_cell_angle_beta                 90.0
_cell_angle_gamma                 90.0
loop_
_atom_site_label
_atom_site_type_symbol
_atom_site_fract_x
_atom_site_fract_y
_atom_site_fract_z
Er1     Er     0.6322   0.0993   0.162
Er2     Er     0.6322   0.0993   0.662
Er3     Er     0.6322   0.5993   0.162
Er4     Er     0.6322   0.5993   0.662
Er5     Er     0.6322   0.4007   0.338
Er6     Er     0.6322   0.4007   0.838
Er7     Er     0.6322   0.9007   0.338
Er8     Er     0.6322   0.9007   0.838
Er9     Er     0.3678   0.0993   0.338
Er10     Er     0.3678   0.0993   0.838
Er11     Er     0.3678   0.5993   0.338
Er12     Er     0.3678   0.5993   0.838
Er13     Er     0.3678   0.4007   0.162
Er14     Er     0.3678   0.4007   0.662
Er15     Er     0.3678   0.9007   0.162
Er16     Er     0.3678   0.9007   0.662
V17     V     0.5   0.25   0.0
V18     V     0.5   0.25   0.5
V19     V     0.5   0.75   0.0
V20     V     0.5   0.75   0.5
Er21     Er     0.8678   0.1507   0.162
Er22     Er     0.8678   0.1507   0.662
Er23     Er     0.8678   0.6507   0.162
Er24     Er     0.8678   0.6507   0.662
Er25     Er     0.8678   0.3493   0.338
Er26     Er     0.8678   0.3493   0.838
Er27     Er     0.8678   0.8493   0.338
Er28     Er     0.8678   0.8493   0.838
Er29     Er     0.1322   0.3493   0.162
Er30     Er     0.1322   0.3493   0.662
Er31     Er     0.1322   0.8493   0.162
Er32     Er     0.1322   0.8493   0.662
Er33     Er     0.1322   0.1507   0.338
Er34     Er     0.1322   0.1507   0.838
Er35     Er     0.1322   0.6507   0.338
Er36     Er     0.1322   0.6507   0.838
V37     V     0.0   0.0   0.0
V38     V     0.0   0.0   0.5
V39     V     0.0   0.5   0.0
V40     V     0.0   0.5   0.5
loop_
_geom_bond_atom_site_label_1
_geom_bond_atom_site_label_2
_geom_bond_distance
_geom_bond_site_symmetry_2
_ccdc_geom_bond_type
Er1     Er7    10.0   1_545     S
Er1     V17    10.0   .     S
Er1     Er21    10.0   .     S
Er2     Er8    10.0   1_545     S
Er2     V18    10.0   .     S
Er2     Er22    10.0   .     S
Er3     Er5    10.0   .     S
Er3     V19    10.0   .     S
Er3     Er23    10.0   .     S
Er4     Er6    10.0   .     S
Er4     V20    10.0   .     S
Er4     Er24    10.0   .     S
Er5     V18    10.0   .     S
Er5     Er25    10.0   .     S
Er6     V17    10.0   1_556     S
Er6     Er26    10.0   .     S
Er7     Er1    10.0   1_565     S
Er7     V20    10.0   .     S
Er7     Er27    10.0   .     S
Er8     Er2    10.0   1_565     S
Er8     V19    10.0   1_556     S
Er8     Er28    10.0   .     S
Er9     Er15    10.0   1_545     S
Er9     V18    10.0   .     S
Er9     Er33    10.0   .     S
Er10     Er16    10.0   1_545     S
Er10     V17    10.0   1_556     S
Er10     Er34    10.0   .     S
Er11     Er13    10.0   .     S
Er11     V20    10.0   .     S
Er11     Er35    10.0   .     S
Er12     Er14    10.0   .     S
Er12     V19    10.0   1_556     S
Er12     Er36    10.0   .     S
Er13     V17    10.0   .     S
Er13     Er29    10.0   .     S
Er14     V18    10.0   .     S
Er14     Er30    10.0   .     S
Er15     Er9    10.0   1_565     S
Er15     V19    10.0   .     S
Er15     Er31    10.0   .     S
Er16     Er10    10.0   1_565     S
Er16     V20    10.0   .     S
Er16     Er32    10.0   .     S
V17     Er6    10.0   1_554     S
V17     Er10    10.0   1_554     S
V19     Er8    10.0   1_554     S
V19     Er12    10.0   1_554     S
Er21     Er25    10.0   .     S
Er21     V37    10.0   1_655     S
Er22     Er26    10.0   .     S
Er22     V38    10.0   1_655     S
Er23     Er27    10.0   .     S
Er23     V39    10.0   1_655     S
Er24     Er28    10.0   .     S
Er24     V40    10.0   1_655     S
Er25     V40    10.0   1_655     S
Er26     V39    10.0   1_656     S
Er27     V38    10.0   1_665     S
Er28     V37    10.0   1_666     S
Er29     Er33    10.0   .     S
Er29     V39    10.0   .     S
Er30     Er34    10.0   .     S
Er30     V40    10.0   .     S
Er31     Er35    10.0   .     S
Er31     V37    10.0   1_565     S
Er32     Er36    10.0   .     S
Er32     V38    10.0   1_565     S
Er33     V38    10.0   .     S
Er34     V37    10.0   1_556     S
Er35     V40    10.0   .     S
Er36     V39    10.0   1_556     S
V37     Er28    10.0   1_444     S
V37     Er21    10.0   1_455     S
V37     Er34    10.0   1_554     S
V37     Er31    10.0   1_545     S
V38     Er27    10.0   1_445     S
V38     Er22    10.0   1_455     S
V38     Er32    10.0   1_545     S
V39     Er26    10.0   1_454     S
V39     Er23    10.0   1_455     S
V39     Er36    10.0   1_554     S
V40     Er25    10.0   1_455     S
V40     Er24    10.0   1_455     S
