data_dmg
_audit_creation_date              2019-12-31
_audit_creation_method            'Pymatgen'
_symmetry_space_group_name_H-M    'P1'
_symmetry_Int_Tables_number       1
loop_
_symmetry_equiv_pos_as_xyz
  x,y,z
_cell_length_a                    25.6136
_cell_length_b                    35.1652
_cell_length_c                    32.0303
_cell_angle_alpha                 90.0
_cell_angle_beta                 90.0
_cell_angle_gamma                 90.0
loop_
_atom_site_label
_atom_site_type_symbol
_atom_site_fract_x
_atom_site_fract_y
_atom_site_fract_z
Ti1     Ti     0.3048   0.25   0.0
Ti2     Ti     0.3048   0.75   0.0
Ti3     Ti     0.6952   0.25   0.0
Ti4     Ti     0.6952   0.75   0.0
Er5     Er     0.0   0.25   0.1951
Er6     Er     0.0   0.75   0.1951
Er7     Er     0.0   0.25   0.8049
Er8     Er     0.0   0.75   0.8049
V9     V     0.0   0.0   0.3439
V10     V     0.0   0.5   0.3439
V11     V     0.0   0.0   0.6561
V12     V     0.0   0.5   0.6561
loop_
_geom_bond_atom_site_label_1
_geom_bond_atom_site_label_2
_geom_bond_distance
_geom_bond_site_symmetry_2
_ccdc_geom_bond_type
Ti1     Er5    10.0   .     S
Ti1     Er7    10.0   1_554     S
Ti1     Ti3    10.0   .     S
Ti2     Er6    10.0   .     S
Ti2     Er8    10.0   1_554     S
Ti2     Ti4    10.0   .     S
Ti3     Er5    10.0   1_655     S
Ti3     Er7    10.0   1_654     S
Ti4     Er6    10.0   1_655     S
Ti4     Er8    10.0   1_654     S
Er5     Ti3    10.0   1_455     S
Er5     V9    10.0   .     S
Er5     V10    10.0   .     S
Er6     Ti4    10.0   1_455     S
Er6     V10    10.0   .     S
Er6     V9    10.0   1_565     S
Er7     Ti1    10.0   1_556     S
Er7     Ti3    10.0   1_456     S
Er7     V12    10.0   .     S
Er7     V11    10.0   .     S
Er8     Ti2    10.0   1_556     S
Er8     Ti4    10.0   1_456     S
Er8     V11    10.0   1_565     S
Er8     V12    10.0   .     S
V9     V11    10.0   .     S
V9     Er6    10.0   1_545     S
V10     V12    10.0   .     S
V11     Er8    10.0   1_545     S
