data_dmj
_audit_creation_date              2019-12-31
_audit_creation_method            'Pymatgen'
_symmetry_space_group_name_H-M    'P1'
_symmetry_Int_Tables_number       1
loop_
_symmetry_equiv_pos_as_xyz
  x,y,z
_cell_length_a                    36.112
_cell_length_b                    36.112
_cell_length_c                    39.1138
_cell_angle_alpha                 90.0
_cell_angle_beta                 90.0
_cell_angle_gamma                 120.0
loop_
_atom_site_label
_atom_site_type_symbol
_atom_site_fract_x
_atom_site_fract_y
_atom_site_fract_z
Er1     Er     0.4368   0.8736   0.125
Er2     Er     0.4368   0.8736   0.625
Er3     Er     0.4368   0.5632   0.2917
Er4     Er     0.4368   0.5632   0.7917
Er5     Er     0.1264   0.5632   0.4583
Er6     Er     0.1264   0.5632   0.9583
V7     V     0.1933   0.5967   0.2083
V8     V     0.1933   0.5967   0.7083
V9     V     0.4033   0.5967   0.0417
V10     V     0.4033   0.5967   0.5417
V11     V     0.4033   0.8067   0.375
V12     V     0.4033   0.8067   0.875
Er13     Er     0.5632   0.1264   0.375
Er14     Er     0.5632   0.1264   0.875
Er15     Er     0.8736   0.4368   0.2083
Er16     Er     0.8736   0.4368   0.7083
Er17     Er     0.5632   0.4368   0.0417
Er18     Er     0.5632   0.4368   0.5417
V19     V     0.5967   0.4033   0.2917
V20     V     0.5967   0.4033   0.7917
V21     V     0.8067   0.4033   0.4583
V22     V     0.8067   0.4033   0.9583
V23     V     0.5967   0.1933   0.125
V24     V     0.5967   0.1933   0.625
loop_
_geom_bond_atom_site_label_1
_geom_bond_atom_site_label_2
_geom_bond_distance
_geom_bond_site_symmetry_2
_ccdc_geom_bond_type
Er1     V9    10.0   .     S
Er1     V7    10.0   .     S
Er1     V12    10.0   1_554     S
Er1     V11    10.0   .     S
Er1     V23    10.0   1_565     S
Er2     V10    10.0   .     S
Er2     V8    10.0   .     S
Er2     V11    10.0   .     S
Er2     V12    10.0   .     S
Er2     V24    10.0   1_565     S
Er3     V7    10.0   .     S
Er3     V11    10.0   .     S
Er3     V10    10.0   .     S
Er3     V9    10.0   .     S
Er3     V19    10.0   .     S
Er4     V8    10.0   .     S
Er4     V12    10.0   .     S
Er4     V9    10.0   1_556     S
Er4     V10    10.0   .     S
Er4     V20    10.0   .     S
Er5     V11    10.0   .     S
Er5     V10    10.0   .     S
Er5     V7    10.0   .     S
Er5     V8    10.0   .     S
Er5     V21    10.0   1_455     S
Er6     V12    10.0   .     S
Er6     V9    10.0   1_556     S
Er6     V8    10.0   .     S
Er6     V7    10.0   1_556     S
Er6     V22    10.0   1_455     S
V7     V11    10.0   .     S
V7     V9    10.0   .     S
V7     Er6    10.0   1_554     S
V7     Er15    10.0   1_455     S
V8     V12    10.0   .     S
V8     V10    10.0   .     S
V8     Er16    10.0   1_455     S
V9     V12    10.0   1_554     S
V9     Er4    10.0   1_554     S
V9     Er6    10.0   1_554     S
V9     Er17    10.0   .     S
V10     V11    10.0   .     S
V10     Er18    10.0   .     S
V11     Er13    10.0   1_565     S
V12     Er1    10.0   1_556     S
V12     V9    10.0   1_556     S
V12     Er14    10.0   1_565     S
Er13     V11    10.0   1_545     S
Er13     V19    10.0   .     S
Er13     V21    10.0   .     S
Er13     V23    10.0   .     S
Er13     V24    10.0   .     S
Er14     V12    10.0   1_545     S
Er14     V20    10.0   .     S
Er14     V22    10.0   .     S
Er14     V24    10.0   .     S
Er14     V23    10.0   1_556     S
Er15     V7    10.0   1_655     S
Er15     V23    10.0   .     S
Er15     V19    10.0   .     S
Er15     V22    10.0   1_554     S
Er15     V21    10.0   .     S
Er16     V8    10.0   1_655     S
Er16     V24    10.0   .     S
Er16     V20    10.0   .     S
Er16     V21    10.0   .     S
Er16     V22    10.0   .     S
Er17     V22    10.0   1_554     S
Er17     V23    10.0   .     S
Er17     V19    10.0   .     S
Er17     V20    10.0   1_554     S
Er18     V21    10.0   .     S
Er18     V24    10.0   .     S
Er18     V20    10.0   .     S
Er18     V19    10.0   .     S
V19     V21    10.0   .     S
V19     V23    10.0   .     S
V20     V22    10.0   .     S
V20     V24    10.0   .     S
V20     Er17    10.0   1_556     S
V21     V24    10.0   .     S
V21     Er5    10.0   1_655     S
V22     V23    10.0   1_556     S
V22     Er15    10.0   1_556     S
V22     Er17    10.0   1_556     S
V22     Er6    10.0   1_655     S
V23     V22    10.0   1_554     S
V23     Er14    10.0   1_554     S
V23     Er1    10.0   1_545     S
V24     Er2    10.0   1_545     S
