data_dmp
_audit_creation_date              2019-12-31
_audit_creation_method            'Pymatgen'
_symmetry_space_group_name_H-M    'P1'
_symmetry_Int_Tables_number       1
loop_
_symmetry_equiv_pos_as_xyz
  x,y,z
_cell_length_a                    24.4521
_cell_length_b                    23.1206
_cell_length_c                    28.3008
_cell_angle_alpha                 90.0
_cell_angle_beta                 90.0
_cell_angle_gamma                 90.0
loop_
_atom_site_label
_atom_site_type_symbol
_atom_site_fract_x
_atom_site_fract_y
_atom_site_fract_z
V1     V     0.5831   0.125   0.375
V2     V     0.5831   0.125   0.875
V3     V     0.5831   0.625   0.375
V4     V     0.5831   0.625   0.875
V5     V     0.9169   0.375   0.375
V6     V     0.9169   0.375   0.875
V7     V     0.9169   0.875   0.375
V8     V     0.9169   0.875   0.875
V9     V     0.0831   0.125   0.125
V10     V     0.0831   0.125   0.625
V11     V     0.0831   0.625   0.125
V12     V     0.0831   0.625   0.625
V13     V     0.4169   0.375   0.125
V14     V     0.4169   0.375   0.625
V15     V     0.4169   0.875   0.125
V16     V     0.4169   0.875   0.625
loop_
_geom_bond_atom_site_label_1
_geom_bond_atom_site_label_2
_geom_bond_distance
_geom_bond_site_symmetry_2
_ccdc_geom_bond_type
V1     V7    10.0   1_545     S
V1     V5    10.0   .     S
V1     V13    10.0   .     S
V1     V16    10.0   1_545     S
V2     V8    10.0   1_545     S
V2     V6    10.0   .     S
V2     V14    10.0   .     S
V2     V15    10.0   1_546     S
V3     V5    10.0   .     S
V3     V7    10.0   .     S
V3     V15    10.0   .     S
V3     V14    10.0   .     S
V4     V6    10.0   .     S
V4     V8    10.0   .     S
V4     V16    10.0   .     S
V4     V13    10.0   1_556     S
V5     V9    10.0   1_655     S
V5     V12    10.0   1_655     S
V6     V10    10.0   1_655     S
V6     V11    10.0   1_656     S
V7     V1    10.0   1_565     S
V7     V11    10.0   1_655     S
V7     V10    10.0   1_665     S
V8     V2    10.0   1_565     S
V8     V12    10.0   1_655     S
V8     V9    10.0   1_666     S
V9     V5    10.0   1_455     S
V9     V15    10.0   1_545     S
V9     V13    10.0   .     S
V9     V8    10.0   1_444     S
V10     V6    10.0   1_455     S
V10     V16    10.0   1_545     S
V10     V14    10.0   .     S
V10     V7    10.0   1_445     S
V11     V7    10.0   1_455     S
V11     V13    10.0   .     S
V11     V15    10.0   .     S
V11     V6    10.0   1_454     S
V12     V8    10.0   1_455     S
V12     V14    10.0   .     S
V12     V16    10.0   .     S
V12     V5    10.0   1_455     S
V13     V4    10.0   1_554     S
V15     V9    10.0   1_565     S
V15     V2    10.0   1_564     S
V16     V10    10.0   1_565     S
V16     V1    10.0   1_565     S
