data_dnm
_audit_creation_date              2019-12-31
_audit_creation_method            'Pymatgen'
_symmetry_space_group_name_H-M    'P1'
_symmetry_Int_Tables_number       1
loop_
_symmetry_equiv_pos_as_xyz
  x,y,z
_cell_length_a                    36.8448
_cell_length_b                    36.8448
_cell_length_c                    25.6791
_cell_angle_alpha                 90.0
_cell_angle_beta                 90.0
_cell_angle_gamma                 120.0
loop_
_atom_site_label
_atom_site_type_symbol
_atom_site_fract_x
_atom_site_fract_y
_atom_site_fract_z
Ti1     Ti     0.2734   0.2266   0.8592
Ti2     Ti     0.2734   0.7266   0.8592
Ti3     Ti     0.7734   0.2266   0.8592
Ti4     Ti     0.7734   0.7266   0.8592
Ti5     Ti     0.4532   0.2266   0.8592
Ti6     Ti     0.4532   0.7266   0.8592
Ti7     Ti     0.9532   0.2266   0.8592
Ti8     Ti     0.9532   0.7266   0.8592
Ti9     Ti     0.2734   0.0468   0.8592
Ti10     Ti     0.2734   0.5468   0.8592
Ti11     Ti     0.7734   0.0468   0.8592
Ti12     Ti     0.7734   0.5468   0.8592
Er13     Er     0.3333   0.1667   0.5
Er14     Er     0.3333   0.6667   0.5
Er15     Er     0.8333   0.1667   0.5
Er16     Er     0.8333   0.6667   0.5
Ti17     Ti     0.2734   0.2266   0.1408
Ti18     Ti     0.2734   0.7266   0.1408
Ti19     Ti     0.7734   0.2266   0.1408
Ti20     Ti     0.7734   0.7266   0.1408
Ti21     Ti     0.4532   0.2266   0.1408
Ti22     Ti     0.4532   0.7266   0.1408
Ti23     Ti     0.9532   0.2266   0.1408
Ti24     Ti     0.9532   0.7266   0.1408
Ti25     Ti     0.2734   0.0468   0.1408
Ti26     Ti     0.2734   0.5468   0.1408
Ti27     Ti     0.7734   0.0468   0.1408
Ti28     Ti     0.7734   0.5468   0.1408
V29     V     0.0   0.0   0.0
V30     V     0.0   0.5   0.0
V31     V     0.5   0.0   0.0
V32     V     0.5   0.5   0.0
loop_
_geom_bond_atom_site_label_1
_geom_bond_atom_site_label_2
_geom_bond_distance
_geom_bond_site_symmetry_2
_ccdc_geom_bond_type
Ti1     V29    10.008   1_556     S
Ti1     V32    10.008   1_556     S
Ti1     Er13    9.984   .     S
Ti2     V30    10.008   1_556     S
Ti2     V31    10.008   1_566     S
Ti2     Er14    9.984   .     S
Ti3     V31    10.008   1_556     S
Ti3     V30    10.008   1_656     S
Ti3     Er15    9.984   .     S
Ti4     V32    10.008   1_556     S
Ti4     V29    10.008   1_666     S
Ti4     Er16    9.984   .     S
Ti5     V31    10.008   1_556     S
Ti5     V32    10.008   1_556     S
Ti5     Er13    9.984   .     S
Ti6     V32    10.008   1_556     S
Ti6     V31    10.008   1_566     S
Ti6     Er14    9.984   .     S
Ti7     V29    10.008   1_656     S
Ti7     V30    10.008   1_656     S
Ti7     Er15    9.984   .     S
Ti8     V30    10.008   1_656     S
Ti8     V29    10.008   1_666     S
Ti8     Er16    9.984   .     S
Ti9     V31    10.008   1_556     S
Ti9     V29    10.008   1_556     S
Ti9     Er13    9.984   .     S
Ti10     V32    10.008   1_556     S
Ti10     V30    10.008   1_556     S
Ti10     Er14    9.984   .     S
Ti11     V29    10.008   1_656     S
Ti11     V31    10.008   1_556     S
Ti11     Er15    9.984   .     S
Ti12     V30    10.008   1_656     S
Ti12     V32    10.008   1_556     S
Ti12     Er16    9.984   .     S
Er13     Ti21    9.984   .     S
Er13     Ti17    9.984   .     S
Er13     Ti25    9.984   .     S
Er14     Ti22    9.984   .     S
Er14     Ti18    9.984   .     S
Er14     Ti26    9.984   .     S
Er15     Ti23    9.984   .     S
Er15     Ti19    9.984   .     S
Er15     Ti27    9.984   .     S
Er16     Ti24    9.984   .     S
Er16     Ti20    9.984   .     S
Er16     Ti28    9.984   .     S
Ti17     V29    10.008   .     S
Ti17     V32    10.008   .     S
Ti18     V30    10.008   .     S
Ti18     V31    10.008   1_565     S
Ti19     V31    10.008   .     S
Ti19     V30    10.008   1_655     S
Ti20     V32    10.008   .     S
Ti20     V29    10.008   1_665     S
Ti21     V31    10.008   .     S
Ti21     V32    10.008   .     S
Ti22     V32    10.008   .     S
Ti22     V31    10.008   1_565     S
Ti23     V29    10.008   1_655     S
Ti23     V30    10.008   1_655     S
Ti24     V30    10.008   1_655     S
Ti24     V29    10.008   1_665     S
Ti25     V31    10.008   .     S
Ti25     V29    10.008   .     S
Ti26     V32    10.008   .     S
Ti26     V30    10.008   .     S
Ti27     V29    10.008   1_655     S
Ti27     V31    10.008   .     S
Ti28     V30    10.008   1_655     S
Ti28     V32    10.008   .     S
V29     Ti23    10.008   1_455     S
V29     Ti27    10.008   1_455     S
V29     Ti7    10.008   1_454     S
V29     Ti11    10.008   1_454     S
V29     Ti9    10.008   1_554     S
V29     Ti1    10.008   1_554     S
V29     Ti4    10.008   1_444     S
V29     Ti8    10.008   1_444     S
V29     Ti20    10.008   1_445     S
V29     Ti24    10.008   1_445     S
V30     Ti24    10.008   1_455     S
V30     Ti28    10.008   1_455     S
V30     Ti8    10.008   1_454     S
V30     Ti12    10.008   1_454     S
V30     Ti10    10.008   1_554     S
V30     Ti2    10.008   1_554     S
V30     Ti3    10.008   1_454     S
V30     Ti7    10.008   1_454     S
V30     Ti19    10.008   1_455     S
V30     Ti23    10.008   1_455     S
V31     Ti5    10.008   1_554     S
V31     Ti9    10.008   1_554     S
V31     Ti11    10.008   1_554     S
V31     Ti3    10.008   1_554     S
V31     Ti2    10.008   1_544     S
V31     Ti6    10.008   1_544     S
V31     Ti18    10.008   1_545     S
V31     Ti22    10.008   1_545     S
V32     Ti6    10.008   1_554     S
V32     Ti10    10.008   1_554     S
V32     Ti12    10.008   1_554     S
V32     Ti4    10.008   1_554     S
V32     Ti1    10.008   1_554     S
V32     Ti5    10.008   1_554     S
