data_dnn
_audit_creation_date              2019-12-31
_audit_creation_method            'Pymatgen'
_symmetry_space_group_name_H-M    'P1'
_symmetry_Int_Tables_number       1
loop_
_symmetry_equiv_pos_as_xyz
  x,y,z
_cell_length_a                    36.8526
_cell_length_b                    36.8526
_cell_length_c                    51.3368
_cell_angle_alpha                 90.0
_cell_angle_beta                 90.0
_cell_angle_gamma                 120.0
loop_
_atom_site_label
_atom_site_type_symbol
_atom_site_fract_x
_atom_site_fract_y
_atom_site_fract_z
Er1     Er     0.3333   0.1667   0.25
Er2     Er     0.3333   0.6667   0.25
Er3     Er     0.8333   0.1667   0.25
Er4     Er     0.8333   0.6667   0.25
Ti5     Ti     0.453   0.2265   0.4297
Ti6     Ti     0.453   0.7265   0.4297
Ti7     Ti     0.953   0.2265   0.4297
Ti8     Ti     0.953   0.7265   0.4297
Ti9     Ti     0.2735   0.2265   0.4297
Ti10     Ti     0.2735   0.7265   0.4297
Ti11     Ti     0.7735   0.2265   0.4297
Ti12     Ti     0.7735   0.7265   0.4297
Ti13     Ti     0.2735   0.047   0.4297
Ti14     Ti     0.2735   0.547   0.4297
Ti15     Ti     0.7735   0.047   0.4297
Ti16     Ti     0.7735   0.547   0.4297
Ti17     Ti     0.2735   0.047   0.0703
Ti18     Ti     0.2735   0.547   0.0703
Ti19     Ti     0.7735   0.047   0.0703
Ti20     Ti     0.7735   0.547   0.0703
Ti21     Ti     0.453   0.2265   0.0703
Ti22     Ti     0.453   0.7265   0.0703
Ti23     Ti     0.953   0.2265   0.0703
Ti24     Ti     0.953   0.7265   0.0703
Ti25     Ti     0.2735   0.2265   0.0703
Ti26     Ti     0.2735   0.7265   0.0703
Ti27     Ti     0.7735   0.2265   0.0703
Ti28     Ti     0.7735   0.7265   0.0703
Er29     Er     0.1667   0.3333   0.75
Er30     Er     0.1667   0.8333   0.75
Er31     Er     0.6667   0.3333   0.75
Er32     Er     0.6667   0.8333   0.75
Ti33     Ti     0.2265   0.453   0.5703
Ti34     Ti     0.2265   0.953   0.5703
Ti35     Ti     0.7265   0.453   0.5703
Ti36     Ti     0.7265   0.953   0.5703
Ti37     Ti     0.2265   0.453   0.9297
Ti38     Ti     0.2265   0.953   0.9297
Ti39     Ti     0.7265   0.453   0.9297
Ti40     Ti     0.7265   0.953   0.9297
Ti41     Ti     0.047   0.2735   0.5703
Ti42     Ti     0.047   0.7735   0.5703
Ti43     Ti     0.547   0.2735   0.5703
Ti44     Ti     0.547   0.7735   0.5703
Ti45     Ti     0.2265   0.2735   0.5703
Ti46     Ti     0.2265   0.7735   0.5703
Ti47     Ti     0.7265   0.2735   0.5703
Ti48     Ti     0.7265   0.7735   0.5703
Ti49     Ti     0.047   0.2735   0.9297
Ti50     Ti     0.047   0.7735   0.9297
Ti51     Ti     0.547   0.2735   0.9297
Ti52     Ti     0.547   0.7735   0.9297
Ti53     Ti     0.2265   0.2735   0.9297
Ti54     Ti     0.2265   0.7735   0.9297
Ti55     Ti     0.7265   0.2735   0.9297
Ti56     Ti     0.7265   0.7735   0.9297
V57     V     0.0   0.0   0.0
V58     V     1.0   0.5   0.0
V59     V     0.5   0.0   0.0
V60     V     0.5   0.5   0.0
V61     V     0.0   0.0   0.5
V62     V     1.0   0.5   0.5
V63     V     0.5   0.0   0.5
V64     V     0.5   0.5   0.5
loop_
_geom_bond_atom_site_label_1
_geom_bond_atom_site_label_2
_geom_bond_distance
_geom_bond_site_symmetry_2
_ccdc_geom_bond_type
Er1     Ti25    9.984   .     S
Er1     Ti17    9.984   .     S
Er1     Ti21    9.984   .     S
Er1     Ti5    9.984   .     S
Er1     Ti9    9.984   .     S
Er1     Ti13    9.984   .     S
Er2     Ti26    9.984   .     S
Er2     Ti18    9.984   .     S
Er2     Ti22    9.984   .     S
Er2     Ti6    9.984   .     S
Er2     Ti10    9.984   .     S
Er2     Ti14    9.984   .     S
Er3     Ti27    9.984   .     S
Er3     Ti19    9.984   .     S
Er3     Ti23    9.984   .     S
Er3     Ti7    9.984   .     S
Er3     Ti11    9.984   .     S
Er3     Ti15    9.984   .     S
Er4     Ti28    9.984   .     S
Er4     Ti20    9.984   .     S
Er4     Ti24    9.984   .     S
Er4     Ti8    9.984   .     S
Er4     Ti12    9.984   .     S
Er4     Ti16    9.984   .     S
Ti5     V63    10.008   .     S
Ti5     V64    10.008   .     S
Ti6     V64    10.008   .     S
Ti6     V63    10.008   1_565     S
Ti7     V61    10.008   1_655     S
Ti7     V62    10.008   .     S
Ti8     V62    10.008   .     S
Ti8     V61    10.008   1_665     S
Ti9     V64    10.008   .     S
Ti9     V61    10.008   .     S
Ti10     V63    10.008   1_565     S
Ti10     V62    10.008   1_455     S
Ti11     V62    10.008   .     S
Ti11     V63    10.008   .     S
Ti12     V61    10.008   1_665     S
Ti12     V64    10.008   .     S
Ti13     V63    10.008   .     S
Ti13     V61    10.008   .     S
Ti14     V64    10.008   .     S
Ti14     V62    10.008   1_455     S
Ti15     V61    10.008   1_655     S
Ti15     V63    10.008   .     S
Ti16     V62    10.008   .     S
Ti16     V64    10.008   .     S
Ti17     V57    10.008   .     S
Ti17     V59    10.008   .     S
Ti18     V58    10.008   1_455     S
Ti18     V60    10.008   .     S
Ti19     V59    10.008   .     S
Ti19     V57    10.008   1_655     S
Ti20     V60    10.008   .     S
Ti20     V58    10.008   .     S
Ti21     V60    10.008   .     S
Ti21     V59    10.008   .     S
Ti22     V59    10.008   1_565     S
Ti22     V60    10.008   .     S
Ti23     V58    10.008   .     S
Ti23     V57    10.008   1_655     S
Ti24     V57    10.008   1_665     S
Ti24     V58    10.008   .     S
Ti25     V57    10.008   .     S
Ti25     V60    10.008   .     S
Ti26     V58    10.008   1_455     S
Ti26     V59    10.008   1_565     S
Ti27     V59    10.008   .     S
Ti27     V58    10.008   .     S
Ti28     V60    10.008   .     S
Ti28     V57    10.008   1_665     S
Er29     Ti53    9.984   .     S
Er29     Ti49    9.984   .     S
Er29     Ti37    9.984   .     S
Er29     Ti33    9.984   .     S
Er29     Ti41    9.984   .     S
Er29     Ti45    9.984   .     S
Er30     Ti54    9.984   .     S
Er30     Ti50    9.984   .     S
Er30     Ti38    9.984   .     S
Er30     Ti34    9.984   .     S
Er30     Ti42    9.984   .     S
Er30     Ti46    9.984   .     S
Er31     Ti55    9.984   .     S
Er31     Ti51    9.984   .     S
Er31     Ti39    9.984   .     S
Er31     Ti35    9.984   .     S
Er31     Ti43    9.984   .     S
Er31     Ti47    9.984   .     S
Er32     Ti56    9.984   .     S
Er32     Ti52    9.984   .     S
Er32     Ti40    9.984   .     S
Er32     Ti36    9.984   .     S
Er32     Ti44    9.984   .     S
Er32     Ti48    9.984   .     S
Ti33     V64    10.008   .     S
Ti33     V62    10.008   1_455     S
Ti34     V63    10.008   1_565     S
Ti34     V61    10.008   1_565     S
Ti35     V62    10.008   .     S
Ti35     V64    10.008   .     S
Ti36     V61    10.008   1_665     S
Ti36     V63    10.008   1_565     S
Ti37     V58    10.008   1_456     S
Ti37     V60    10.008   1_556     S
Ti38     V57    10.008   1_566     S
Ti38     V59    10.008   1_566     S
Ti39     V60    10.008   1_556     S
Ti39     V58    10.008   1_556     S
Ti40     V59    10.008   1_566     S
Ti40     V57    10.008   1_666     S
Ti41     V61    10.008   .     S
Ti41     V62    10.008   1_455     S
Ti42     V62    10.008   1_455     S
Ti42     V61    10.008   1_565     S
Ti43     V63    10.008   .     S
Ti43     V64    10.008   .     S
Ti44     V64    10.008   .     S
Ti44     V63    10.008   1_565     S
Ti45     V61    10.008   .     S
Ti45     V64    10.008   .     S
Ti46     V62    10.008   1_455     S
Ti46     V63    10.008   1_565     S
Ti47     V63    10.008   .     S
Ti47     V62    10.008   .     S
Ti48     V64    10.008   .     S
Ti48     V61    10.008   1_665     S
Ti49     V58    10.008   1_456     S
Ti49     V57    10.008   1_556     S
Ti50     V57    10.008   1_566     S
Ti50     V58    10.008   1_456     S
Ti51     V60    10.008   1_556     S
Ti51     V59    10.008   1_556     S
Ti52     V59    10.008   1_566     S
Ti52     V60    10.008   1_556     S
Ti53     V60    10.008   1_556     S
Ti53     V57    10.008   1_556     S
Ti54     V59    10.008   1_566     S
Ti54     V58    10.008   1_456     S
Ti55     V58    10.008   1_556     S
Ti55     V59    10.008   1_556     S
Ti56     V57    10.008   1_666     S
Ti56     V60    10.008   1_556     S
V57     Ti50    10.008   1_544     S
V57     Ti38    10.008   1_544     S
V57     Ti40    10.008   1_444     S
V57     Ti56    10.008   1_444     S
V57     Ti24    10.008   1_445     S
V57     Ti28    10.008   1_445     S
V57     Ti53    10.008   1_554     S
V57     Ti49    10.008   1_554     S
V57     Ti19    10.008   1_455     S
V57     Ti23    10.008   1_455     S
V58     Ti26    10.008   1_655     S
V58     Ti18    10.008   1_655     S
V58     Ti49    10.008   1_654     S
V58     Ti37    10.008   1_654     S
V58     Ti39    10.008   1_554     S
V58     Ti55    10.008   1_554     S
V58     Ti54    10.008   1_654     S
V58     Ti50    10.008   1_654     S
V59     Ti52    10.008   1_544     S
V59     Ti40    10.008   1_544     S
V59     Ti38    10.008   1_544     S
V59     Ti54    10.008   1_544     S
V59     Ti22    10.008   1_545     S
V59     Ti26    10.008   1_545     S
V59     Ti55    10.008   1_554     S
V59     Ti51    10.008   1_554     S
V60     Ti51    10.008   1_554     S
V60     Ti39    10.008   1_554     S
V60     Ti37    10.008   1_554     S
V60     Ti53    10.008   1_554     S
V60     Ti56    10.008   1_554     S
V60     Ti52    10.008   1_554     S
V61     Ti7    10.008   1_455     S
V61     Ti15    10.008   1_455     S
V61     Ti48    10.008   1_445     S
V61     Ti36    10.008   1_445     S
V61     Ti12    10.008   1_445     S
V61     Ti8    10.008   1_445     S
V61     Ti34    10.008   1_545     S
V61     Ti42    10.008   1_545     S
V62     Ti42    10.008   1_655     S
V62     Ti46    10.008   1_655     S
V62     Ti14    10.008   1_655     S
V62     Ti10    10.008   1_655     S
V62     Ti33    10.008   1_655     S
V62     Ti41    10.008   1_655     S
V63     Ti46    10.008   1_545     S
V63     Ti34    10.008   1_545     S
V63     Ti10    10.008   1_545     S
V63     Ti6    10.008   1_545     S
V63     Ti36    10.008   1_545     S
V63     Ti44    10.008   1_545     S
