data_dno
_audit_creation_date              2019-12-31
_audit_creation_method            'Pymatgen'
_symmetry_space_group_name_H-M    'P1'
_symmetry_Int_Tables_number       1
loop_
_symmetry_equiv_pos_as_xyz
  x,y,z
_cell_length_a                    36.5576
_cell_length_b                    36.5576
_cell_length_c                    25.7898
_cell_angle_alpha                 90.0
_cell_angle_beta                 90.0
_cell_angle_gamma                 120.0
loop_
_atom_site_label
_atom_site_type_symbol
_atom_site_fract_x
_atom_site_fract_y
_atom_site_fract_z
Ti1     Ti     0.2119   0.2881   0.133
Ti2     Ti     0.2119   0.7881   0.133
Ti3     Ti     0.7119   0.2881   0.133
Ti4     Ti     0.7119   0.7881   0.133
Ti5     Ti     0.2881   0.2119   0.133
Ti6     Ti     0.2881   0.7119   0.133
Ti7     Ti     0.7881   0.2119   0.133
Ti8     Ti     0.7881   0.7119   0.133
Ti9     Ti     0.2881   0.0762   0.133
Ti10     Ti     0.2881   0.5762   0.133
Ti11     Ti     0.7881   0.0762   0.133
Ti12     Ti     0.7881   0.5762   0.133
Ti13     Ti     0.2119   0.4238   0.133
Ti14     Ti     0.2119   0.9238   0.133
Ti15     Ti     0.7119   0.4238   0.133
Ti16     Ti     0.7119   0.9238   0.133
Ti17     Ti     0.0762   0.2881   0.133
Ti18     Ti     0.0762   0.7881   0.133
Ti19     Ti     0.5762   0.2881   0.133
Ti20     Ti     0.5762   0.7881   0.133
Ti21     Ti     0.4238   0.2119   0.133
Ti22     Ti     0.4238   0.7119   0.133
Ti23     Ti     0.9238   0.2119   0.133
Ti24     Ti     0.9238   0.7119   0.133
Er25     Er     0.1667   0.3333   0.5
Er26     Er     0.1667   0.8333   0.5
Er27     Er     0.6667   0.3333   0.5
Er28     Er     0.6667   0.8333   0.5
Ti29     Ti     0.2119   0.4238   0.867
Ti30     Ti     0.2119   0.9238   0.867
Ti31     Ti     0.7119   0.4238   0.867
Ti32     Ti     0.7119   0.9238   0.867
Ti33     Ti     0.2881   0.0762   0.867
Ti34     Ti     0.2881   0.5762   0.867
Ti35     Ti     0.7881   0.0762   0.867
Ti36     Ti     0.7881   0.5762   0.867
Ti37     Ti     0.2881   0.2119   0.867
Ti38     Ti     0.2881   0.7119   0.867
Ti39     Ti     0.7881   0.2119   0.867
Ti40     Ti     0.7881   0.7119   0.867
Ti41     Ti     0.2119   0.2881   0.867
Ti42     Ti     0.2119   0.7881   0.867
Ti43     Ti     0.7119   0.2881   0.867
Ti44     Ti     0.7119   0.7881   0.867
Ti45     Ti     0.0762   0.2881   0.867
Ti46     Ti     0.0762   0.7881   0.867
Ti47     Ti     0.5762   0.2881   0.867
Ti48     Ti     0.5762   0.7881   0.867
Ti49     Ti     0.4238   0.2119   0.867
Ti50     Ti     0.4238   0.7119   0.867
Ti51     Ti     0.9238   0.2119   0.867
Ti52     Ti     0.9238   0.7119   0.867
Er53     Er     0.3333   0.1667   0.5
Er54     Er     0.3333   0.6667   0.5
Er55     Er     0.8333   0.1667   0.5
Er56     Er     0.8333   0.6667   0.5
V57     V     0.0   0.0   0.0
V58     V     1.0   0.5   0.0
V59     V     0.5   0.0   0.0
V60     V     0.5   0.5   0.0
loop_
_geom_bond_atom_site_label_1
_geom_bond_atom_site_label_2
_geom_bond_distance
_geom_bond_site_symmetry_2
_ccdc_geom_bond_type
Ti1     V57    10.055   .     S
Ti1     V60    10.055   .     S
Ti1     Er25    9.889   .     S
Ti2     V58    10.055   1_455     S
Ti2     V59    10.055   1_565     S
Ti2     Er26    9.889   .     S
Ti3     V59    10.055   .     S
Ti3     V58    10.055   .     S
Ti3     Er27    9.889   .     S
Ti4     V60    10.055   .     S
Ti4     V57    10.055   1_665     S
Ti4     Er28    9.889   .     S
Ti5     V57    10.055   .     S
Ti5     V60    10.055   .     S
Ti5     Er53    9.889   .     S
Ti6     V58    10.055   1_455     S
Ti6     V59    10.055   1_565     S
Ti6     Er54    9.889   .     S
Ti7     V59    10.055   .     S
Ti7     V58    10.055   .     S
Ti7     Er55    9.889   .     S
Ti8     V60    10.055   .     S
Ti8     V57    10.055   1_665     S
Ti8     Er56    9.889   .     S
Ti9     V57    10.055   .     S
Ti9     V59    10.055   .     S
Ti9     Er53    9.889   .     S
Ti10     V58    10.055   1_455     S
Ti10     V60    10.055   .     S
Ti10     Er54    9.889   .     S
Ti11     V59    10.055   .     S
Ti11     V57    10.055   1_655     S
Ti11     Er55    9.889   .     S
Ti12     V60    10.055   .     S
Ti12     V58    10.055   .     S
Ti12     Er56    9.889   .     S
Ti13     V58    10.055   1_455     S
Ti13     V60    10.055   .     S
Ti13     Er25    9.889   .     S
Ti14     V57    10.055   1_565     S
Ti14     V59    10.055   1_565     S
Ti14     Er26    9.889   .     S
Ti15     V60    10.055   .     S
Ti15     V58    10.055   .     S
Ti15     Er27    9.889   .     S
Ti16     V59    10.055   1_565     S
Ti16     V57    10.055   1_665     S
Ti16     Er28    9.889   .     S
Ti17     V57    10.055   .     S
Ti17     V58    10.055   1_455     S
Ti17     Er25    9.889   .     S
Ti18     V58    10.055   1_455     S
Ti18     V57    10.055   1_565     S
Ti18     Er26    9.889   .     S
Ti19     V59    10.055   .     S
Ti19     V60    10.055   .     S
Ti19     Er27    9.889   .     S
Ti20     V60    10.055   .     S
Ti20     V59    10.055   1_565     S
Ti20     Er28    9.889   .     S
Ti21     V59    10.055   .     S
Ti21     V60    10.055   .     S
Ti21     Er53    9.889   .     S
Ti22     V60    10.055   .     S
Ti22     V59    10.055   1_565     S
Ti22     Er54    9.889   .     S
Ti23     V57    10.055   1_655     S
Ti23     V58    10.055   .     S
Ti23     Er55    9.889   .     S
Ti24     V58    10.055   .     S
Ti24     V57    10.055   1_665     S
Ti24     Er56    9.889   .     S
Er25     Ti45    9.889   .     S
Er25     Ti41    9.889   .     S
Er25     Ti29    9.889   .     S
Er26     Ti46    9.889   .     S
Er26     Ti42    9.889   .     S
Er26     Ti30    9.889   .     S
Er27     Ti47    9.889   .     S
Er27     Ti43    9.889   .     S
Er27     Ti31    9.889   .     S
Er28     Ti48    9.889   .     S
Er28     Ti44    9.889   .     S
Er28     Ti32    9.889   .     S
Ti29     V58    10.055   1_456     S
Ti29     V60    10.055   1_556     S
Ti30     V57    10.055   1_566     S
Ti30     V59    10.055   1_566     S
Ti31     V60    10.055   1_556     S
Ti31     V58    10.055   1_556     S
Ti32     V59    10.055   1_566     S
Ti32     V57    10.055   1_666     S
Ti33     V57    10.055   1_556     S
Ti33     V59    10.055   1_556     S
Ti33     Er53    9.889   .     S
Ti34     V58    10.055   1_456     S
Ti34     V60    10.055   1_556     S
Ti34     Er54    9.889   .     S
Ti35     V59    10.055   1_556     S
Ti35     V57    10.055   1_656     S
Ti35     Er55    9.889   .     S
Ti36     V60    10.055   1_556     S
Ti36     V58    10.055   1_556     S
Ti36     Er56    9.889   .     S
Ti37     V57    10.055   1_556     S
Ti37     V60    10.055   1_556     S
Ti37     Er53    9.889   .     S
Ti38     V58    10.055   1_456     S
Ti38     V59    10.055   1_566     S
Ti38     Er54    9.889   .     S
Ti39     V59    10.055   1_556     S
Ti39     V58    10.055   1_556     S
Ti39     Er55    9.889   .     S
Ti40     V60    10.055   1_556     S
Ti40     V57    10.055   1_666     S
Ti40     Er56    9.889   .     S
Ti41     V57    10.055   1_556     S
Ti41     V60    10.055   1_556     S
Ti42     V58    10.055   1_456     S
Ti42     V59    10.055   1_566     S
Ti43     V59    10.055   1_556     S
Ti43     V58    10.055   1_556     S
Ti44     V60    10.055   1_556     S
Ti44     V57    10.055   1_666     S
Ti45     V57    10.055   1_556     S
Ti45     V58    10.055   1_456     S
Ti46     V58    10.055   1_456     S
Ti46     V57    10.055   1_566     S
Ti47     V59    10.055   1_556     S
Ti47     V60    10.055   1_556     S
Ti48     V60    10.055   1_556     S
Ti48     V59    10.055   1_566     S
Ti49     V59    10.055   1_556     S
Ti49     V60    10.055   1_556     S
Ti49     Er53    9.889   .     S
Ti50     V60    10.055   1_556     S
Ti50     V59    10.055   1_566     S
Ti50     Er54    9.889   .     S
Ti51     V57    10.055   1_656     S
Ti51     V58    10.055   1_556     S
Ti51     Er55    9.889   .     S
Ti52     V58    10.055   1_556     S
Ti52     V57    10.055   1_666     S
Ti52     Er56    9.889   .     S
V57     Ti30    10.055   1_544     S
V57     Ti33    10.055   1_554     S
V57     Ti45    10.055   1_554     S
V57     Ti51    10.055   1_454     S
V57     Ti37    10.055   1_554     S
V57     Ti41    10.055   1_554     S
V57     Ti52    10.055   1_444     S
V57     Ti46    10.055   1_544     S
V57     Ti44    10.055   1_444     S
V57     Ti40    10.055   1_444     S
V57     Ti35    10.055   1_454     S
V57     Ti32    10.055   1_444     S
V57     Ti14    10.055   1_545     S
V57     Ti23    10.055   1_455     S
V57     Ti16    10.055   1_445     S
V57     Ti11    10.055   1_455     S
V57     Ti8    10.055   1_445     S
V57     Ti4    10.055   1_445     S
V57     Ti18    10.055   1_545     S
V57     Ti24    10.055   1_445     S
V58     Ti29    10.055   1_654     S
V58     Ti34    10.055   1_654     S
V58     Ti46    10.055   1_654     S
V58     Ti52    10.055   1_554     S
V58     Ti38    10.055   1_654     S
V58     Ti42    10.055   1_654     S
V58     Ti51    10.055   1_554     S
V58     Ti45    10.055   1_654     S
V58     Ti43    10.055   1_554     S
V58     Ti39    10.055   1_554     S
V58     Ti36    10.055   1_554     S
V58     Ti31    10.055   1_554     S
V58     Ti10    10.055   1_655     S
V58     Ti13    10.055   1_655     S
V58     Ti18    10.055   1_655     S
V58     Ti2    10.055   1_655     S
V58     Ti6    10.055   1_655     S
V58     Ti17    10.055   1_655     S
V59     Ti32    10.055   1_544     S
V59     Ti35    10.055   1_554     S
V59     Ti47    10.055   1_554     S
V59     Ti49    10.055   1_554     S
V59     Ti39    10.055   1_554     S
V59     Ti43    10.055   1_554     S
V59     Ti50    10.055   1_544     S
V59     Ti48    10.055   1_544     S
V59     Ti42    10.055   1_544     S
V59     Ti38    10.055   1_544     S
V59     Ti33    10.055   1_554     S
V59     Ti30    10.055   1_544     S
V59     Ti16    10.055   1_545     S
V59     Ti14    10.055   1_545     S
V59     Ti6    10.055   1_545     S
V59     Ti2    10.055   1_545     S
V59     Ti20    10.055   1_545     S
V59     Ti22    10.055   1_545     S
V60     Ti31    10.055   1_554     S
V60     Ti36    10.055   1_554     S
V60     Ti48    10.055   1_554     S
V60     Ti50    10.055   1_554     S
V60     Ti40    10.055   1_554     S
V60     Ti44    10.055   1_554     S
V60     Ti49    10.055   1_554     S
V60     Ti47    10.055   1_554     S
V60     Ti41    10.055   1_554     S
V60     Ti37    10.055   1_554     S
V60     Ti34    10.055   1_554     S
V60     Ti29    10.055   1_554     S
