data_dnq
_audit_creation_date              2019-12-31
_audit_creation_method            'Pymatgen'
_symmetry_space_group_name_H-M    'P1'
_symmetry_Int_Tables_number       1
loop_
_symmetry_equiv_pos_as_xyz
  x,y,z
_cell_length_a                    34.6404
_cell_length_b                    34.6404
_cell_length_c                    24.4957
_cell_angle_alpha                 90.0
_cell_angle_beta                 90.0
_cell_angle_gamma                 90.0
loop_
_atom_site_label
_atom_site_type_symbol
_atom_site_fract_x
_atom_site_fract_y
_atom_site_fract_z
V1     V     0.0   0.0   0.0
V2     V     0.0   0.5   0.0
V3     V     0.5   0.0   0.0
V4     V     0.5   0.5   0.0
Ti5     Ti     0.0   0.1666   0.6666
Ti6     Ti     0.0   0.6666   0.6666
Ti7     Ti     0.5   0.1666   0.6666
Ti8     Ti     0.5   0.6666   0.6666
Ti9     Ti     0.0   0.3334   0.6666
Ti10     Ti     0.0   0.8334   0.6666
Ti11     Ti     0.5   0.3334   0.6666
Ti12     Ti     0.5   0.8334   0.6666
Ti13     Ti     0.1666   0.0   0.3334
Ti14     Ti     0.1666   0.5   0.3334
Ti15     Ti     0.6666   0.0   0.3334
Ti16     Ti     0.6666   0.5   0.3334
Ti17     Ti     0.3334   0.0   0.3334
Ti18     Ti     0.3334   0.5   0.3334
Ti19     Ti     0.8334   0.0   0.3334
Ti20     Ti     0.8334   0.5   0.3334
Er21     Er     0.25   0.25   0.5
Er22     Er     0.25   0.75   0.5
Er23     Er     0.75   0.25   0.5
Er24     Er     0.75   0.75   0.5
loop_
_geom_bond_atom_site_label_1
_geom_bond_atom_site_label_2
_geom_bond_distance
_geom_bond_site_symmetry_2
_ccdc_geom_bond_type
V1     Ti13    10.0   .     S
V1     Ti19    10.0   1_455     S
V1     Ti5    10.0   1_554     S
V1     Ti10    10.0   1_544     S
V2     Ti14    10.0   .     S
V2     Ti20    10.0   1_455     S
V2     Ti6    10.0   1_554     S
V2     Ti9    10.0   1_554     S
V3     Ti15    10.0   .     S
V3     Ti17    10.0   .     S
V3     Ti7    10.0   1_554     S
V3     Ti12    10.0   1_544     S
V4     Ti16    10.0   .     S
V4     Ti18    10.0   .     S
V4     Ti8    10.0   1_554     S
V4     Ti11    10.0   1_554     S
Ti5     V1    10.0   1_556     S
Ti5     Er23    10.0   1_455     S
Ti5     Er21    10.0   .     S
Ti6     V2    10.0   1_556     S
Ti6     Er24    10.0   1_455     S
Ti6     Er22    10.0   .     S
Ti7     V3    10.0   1_556     S
Ti7     Er21    10.0   .     S
Ti7     Er23    10.0   .     S
Ti8     V4    10.0   1_556     S
Ti8     Er22    10.0   .     S
Ti8     Er24    10.0   .     S
Ti9     V2    10.0   1_556     S
Ti9     Er23    10.0   1_455     S
Ti9     Er21    10.0   .     S
Ti10     V1    10.0   1_566     S
Ti10     Er24    10.0   1_455     S
Ti10     Er22    10.0   .     S
Ti11     V4    10.0   1_556     S
Ti11     Er21    10.0   .     S
Ti11     Er23    10.0   .     S
Ti12     V3    10.0   1_566     S
Ti12     Er22    10.0   .     S
Ti12     Er24    10.0   .     S
Ti13     Er21    10.0   .     S
Ti13     Er22    10.0   1_545     S
Ti14     Er22    10.0   .     S
Ti14     Er21    10.0   .     S
Ti15     Er23    10.0   .     S
Ti15     Er24    10.0   1_545     S
Ti16     Er24    10.0   .     S
Ti16     Er23    10.0   .     S
Ti17     Er21    10.0   .     S
Ti17     Er22    10.0   1_545     S
Ti18     Er22    10.0   .     S
Ti18     Er21    10.0   .     S
Ti19     V1    10.0   1_655     S
Ti19     Er23    10.0   .     S
Ti19     Er24    10.0   1_545     S
Ti20     V2    10.0   1_655     S
Ti20     Er24    10.0   .     S
Ti20     Er23    10.0   .     S
Er22     Ti17    10.0   1_565     S
Er22     Ti13    10.0   1_565     S
Er23     Ti5    10.0   1_655     S
Er23     Ti9    10.0   1_655     S
Er24     Ti6    10.0   1_655     S
Er24     Ti10    10.0   1_655     S
Er24     Ti19    10.0   1_565     S
Er24     Ti15    10.0   1_565     S
