data_dum
_audit_creation_date              2019-12-31
_audit_creation_method            'Pymatgen'
_symmetry_space_group_name_H-M    'P1'
_symmetry_Int_Tables_number       1
loop_
_symmetry_equiv_pos_as_xyz
  x,y,z
_cell_length_a                    71.9614
_cell_length_b                    71.9614
_cell_length_c                    30.0
_cell_angle_alpha                 90.0
_cell_angle_beta                 90.0
_cell_angle_gamma                 120.0
loop_
_atom_site_label
_atom_site_type_symbol
_atom_site_fract_x
_atom_site_fract_y
_atom_site_fract_z
Er1     Er     0.5401   0.4599   0.0
Er2     Er     0.5401   0.4599   0.3333
Er3     Er     0.5401   0.4599   0.6667
Er4     Er     0.4599   0.5401   0.0
Er5     Er     0.4599   0.5401   0.3333
Er6     Er     0.4599   0.5401   0.6667
V7     V     0.6203   0.3797   0.0
V8     V     0.6203   0.3797   0.3333
V9     V     0.6203   0.3797   0.6667
V10     V     0.6203   0.2407   0.0
V11     V     0.6203   0.2407   0.3333
V12     V     0.6203   0.2407   0.6667
V13     V     0.7593   0.3797   0.0
V14     V     0.7593   0.3797   0.3333
V15     V     0.7593   0.3797   0.6667
Er16     Er     0.5401   0.0802   0.0
Er17     Er     0.5401   0.0802   0.3333
Er18     Er     0.5401   0.0802   0.6667
Er19     Er     0.4599   0.9198   0.0
Er20     Er     0.4599   0.9198   0.3333
Er21     Er     0.4599   0.9198   0.6667
V22     V     0.3797   0.6203   0.0
V23     V     0.3797   0.6203   0.3333
V24     V     0.3797   0.6203   0.6667
V25     V     0.2407   0.6204   0.0
V26     V     0.2407   0.6204   0.3333
V27     V     0.2407   0.6204   0.6667
V28     V     0.3797   0.7593   0.0
V29     V     0.3797   0.7593   0.3333
V30     V     0.3797   0.7593   0.6667
Er31     Er     0.9198   0.4599   0.0
Er32     Er     0.9198   0.4599   0.3333
Er33     Er     0.9198   0.4599   0.6667
Er34     Er     0.0802   0.5401   0.0
Er35     Er     0.0802   0.5401   0.3333
Er36     Er     0.0802   0.5401   0.6667
loop_
_geom_bond_atom_site_label_1
_geom_bond_atom_site_label_2
_geom_bond_distance
_geom_bond_site_symmetry_2
_ccdc_geom_bond_type
Er1     Er2    10.0   .     S
Er1     Er3    10.0   1_554     S
Er1     Er4    10.0   .     S
Er1     V7    10.0   .     S
Er2     Er3    10.0   .     S
Er2     Er5    10.0   .     S
Er2     V8    10.0   .     S
Er3     Er1    10.0   1_556     S
Er3     Er6    10.0   .     S
Er3     V9    10.0   .     S
Er4     Er5    10.0   .     S
Er4     Er6    10.0   1_554     S
Er4     V22    10.0   .     S
Er5     Er6    10.0   .     S
Er5     V23    10.0   .     S
Er6     Er4    10.0   1_556     S
Er6     V24    10.0   .     S
V7     V10    10.0   .     S
V7     V13    10.0   .     S
V8     V11    10.0   .     S
V8     V14    10.0   .     S
V9     V12    10.0   .     S
V9     V15    10.0   .     S
V10     V13    10.0   .     S
V10     Er16    10.0   .     S
V11     V14    10.0   .     S
V11     Er17    10.0   .     S
V12     V15    10.0   .     S
V12     Er18    10.0   .     S
V13     Er31    10.0   .     S
V14     Er32    10.0   .     S
V15     Er33    10.0   .     S
Er16     Er19    10.0   1_545     S
Er16     Er17    10.0   .     S
Er16     Er18    10.0   1_554     S
Er17     Er20    10.0   1_545     S
Er17     Er18    10.0   .     S
Er18     Er21    10.0   1_545     S
Er18     Er16    10.0   1_556     S
Er19     Er20    10.0   .     S
Er19     Er21    10.0   1_554     S
Er19     Er16    10.0   1_565     S
Er19     V28    10.0   .     S
Er20     Er21    10.0   .     S
Er20     Er17    10.0   1_565     S
Er20     V29    10.0   .     S
Er21     Er19    10.0   1_556     S
Er21     Er18    10.0   1_565     S
Er21     V30    10.0   .     S
V22     V25    10.0   .     S
V22     V28    10.0   .     S
V23     V26    10.0   .     S
V23     V29    10.0   .     S
V24     V27    10.0   .     S
V24     V30    10.0   .     S
V25     V28    10.0   .     S
V25     Er34    10.0   .     S
V26     V29    10.0   .     S
V26     Er35    10.0   .     S
V27     V30    10.0   .     S
V27     Er36    10.0   .     S
Er31     Er32    10.0   .     S
Er31     Er33    10.0   1_554     S
Er31     Er34    10.0   1_655     S
Er32     Er33    10.0   .     S
Er32     Er35    10.0   1_655     S
Er33     Er31    10.0   1_556     S
Er33     Er36    10.0   1_655     S
Er34     Er31    10.0   1_455     S
Er34     Er35    10.0   .     S
Er34     Er36    10.0   1_554     S
Er35     Er32    10.0   1_455     S
Er35     Er36    10.0   .     S
Er36     Er33    10.0   1_455     S
Er36     Er34    10.0   1_556     S
