data_ecb
_audit_creation_date              2019-12-31
_audit_creation_method            'Pymatgen'
_symmetry_space_group_name_H-M    'P1'
_symmetry_Int_Tables_number       1
loop_
_symmetry_equiv_pos_as_xyz
  x,y,z
_cell_length_a                    42.311
_cell_length_b                    42.311
_cell_length_c                    29.9997
_cell_angle_alpha                 90.0
_cell_angle_beta                 90.0
_cell_angle_gamma                 120.0
loop_
_atom_site_label
_atom_site_type_symbol
_atom_site_fract_x
_atom_site_fract_y
_atom_site_fract_z
V1     V     0.7953   0.7953   0.25
V2     V     0.7953   0.7953   0.5833
V3     V     0.7953   0.7953   0.9167
V4     V     0.538   0.6667   0.1389
V5     V     0.538   0.6667   0.4722
V6     V     0.538   0.6667   0.8056
V7     V     0.6667   0.538   0.0278
V8     V     0.6667   0.538   0.3611
V9     V     0.6667   0.538   0.6944
V10     V     0.6667   0.1287   0.1944
V11     V     0.6667   0.1287   0.5278
V12     V     0.6667   0.1287   0.8611
V13     V     0.7953   0.0   0.0833
V14     V     0.7953   0.0   0.4167
V15     V     0.7953   0.0   0.75
V16     V     0.538   0.8713   0.3056
V17     V     0.538   0.8713   0.6389
V18     V     0.538   0.8713   0.9722
V19     V     0.1287   0.6667   0.3056
V20     V     0.1287   0.6667   0.6389
V21     V     0.1287   0.6667   0.9722
V22     V     1.0   0.7953   0.0833
V23     V     1.0   0.7953   0.4167
V24     V     1.0   0.7953   0.75
V25     V     0.8713   0.538   0.1944
V26     V     0.8713   0.538   0.5278
V27     V     0.8713   0.538   0.8611
V28     V     0.8713   0.3333   0.0278
V29     V     0.8713   0.3333   0.3611
V30     V     0.8713   0.3333   0.6944
V31     V     0.0   0.2047   0.25
V32     V     0.0   0.2047   0.5833
V33     V     0.0   0.2047   0.9167
V34     V     0.1287   0.462   0.1389
V35     V     0.1287   0.462   0.4722
V36     V     0.1287   0.462   0.8056
V37     V     0.462   0.3333   0.1944
V38     V     0.462   0.3333   0.5278
V39     V     0.462   0.3333   0.8611
V40     V     0.3333   0.462   0.3056
V41     V     0.3333   0.462   0.6389
V42     V     0.3333   0.462   0.9722
V43     V     0.2047   0.2047   0.0833
V44     V     0.2047   0.2047   0.4167
V45     V     0.2047   0.2047   0.75
V46     V     0.3333   0.8713   0.1389
V47     V     0.3333   0.8713   0.4722
V48     V     0.3333   0.8713   0.8056
V49     V     0.2047   0.0   0.25
V50     V     0.2047   0.0   0.5833
V51     V     0.2047   0.0   0.9167
V52     V     0.462   0.1287   0.0278
V53     V     0.462   0.1287   0.3611
V54     V     0.462   0.1287   0.6944
loop_
_geom_bond_atom_site_label_1
_geom_bond_atom_site_label_2
_geom_bond_distance
_geom_bond_site_symmetry_2
_ccdc_geom_bond_type
V1     V13    10.0   1_565     S
V1     V14    10.0   1_565     S
V1     V8    10.0   .     S
V1     V4    10.0   .     S
V1     V3    10.0   1_554     S
V1     V2    10.0   .     S
V1     V23    10.0   .     S
V1     V22    10.0   .     S
V2     V14    10.0   1_565     S
V2     V15    10.0   1_565     S
V2     V9    10.0   .     S
V2     V5    10.0   .     S
V2     V3    10.0   .     S
V2     V24    10.0   .     S
V2     V23    10.0   .     S
V3     V15    10.0   1_565     S
V3     V13    10.0   1_566     S
V3     V7    10.0   1_556     S
V3     V6    10.0   .     S
V3     V1    10.0   1_556     S
V3     V22    10.0   1_556     S
V3     V24    10.0   .     S
V4     V16    10.0   .     S
V4     V18    10.0   1_554     S
V4     V7    10.0   .     S
V4     V5    10.0   .     S
V4     V6    10.0   1_554     S
V4     V42    10.0   1_554     S
V4     V40    10.0   .     S
V5     V17    10.0   .     S
V5     V16    10.0   .     S
V5     V8    10.0   .     S
V5     V6    10.0   .     S
V5     V40    10.0   .     S
V5     V41    10.0   .     S
V6     V18    10.0   .     S
V6     V17    10.0   .     S
V6     V9    10.0   .     S
V6     V4    10.0   1_556     S
V6     V41    10.0   .     S
V6     V42    10.0   .     S
V7     V37    10.0   .     S
V7     V39    10.0   1_554     S
V7     V3    10.0   1_554     S
V7     V8    10.0   .     S
V7     V9    10.0   1_554     S
V7     V27    10.0   1_554     S
V7     V25    10.0   .     S
V8     V38    10.0   .     S
V8     V37    10.0   .     S
V8     V9    10.0   .     S
V8     V25    10.0   .     S
V8     V26    10.0   .     S
V9     V39    10.0   .     S
V9     V38    10.0   .     S
V9     V7    10.0   1_556     S
V9     V26    10.0   .     S
V9     V27    10.0   .     S
V10     V13    10.0   .     S
V10     V16    10.0   1_545     S
V10     V12    10.0   1_554     S
V10     V11    10.0   .     S
V10     V29    10.0   .     S
V10     V28    10.0   .     S
V10     V52    10.0   .     S
V10     V53    10.0   .     S
V11     V14    10.0   .     S
V11     V17    10.0   1_545     S
V11     V12    10.0   .     S
V11     V30    10.0   .     S
V11     V29    10.0   .     S
V11     V53    10.0   .     S
V11     V54    10.0   .     S
V12     V15    10.0   .     S
V12     V18    10.0   1_545     S
V12     V10    10.0   1_556     S
V12     V28    10.0   1_556     S
V12     V30    10.0   .     S
V12     V54    10.0   .     S
V12     V52    10.0   1_556     S
V13     V1    10.0   1_545     S
V13     V3    10.0   1_544     S
V13     V18    10.0   1_544     S
V13     V14    10.0   .     S
V13     V15    10.0   1_554     S
V13     V33    10.0   1_654     S
V13     V31    10.0   1_655     S
V14     V2    10.0   1_545     S
V14     V1    10.0   1_545     S
V14     V16    10.0   1_545     S
V14     V15    10.0   .     S
V14     V31    10.0   1_655     S
V14     V32    10.0   1_655     S
V15     V3    10.0   1_545     S
V15     V2    10.0   1_545     S
V15     V17    10.0   1_545     S
V15     V13    10.0   1_556     S
V15     V32    10.0   1_655     S
V15     V33    10.0   1_655     S
V16     V47    10.0   .     S
V16     V46    10.0   .     S
V16     V14    10.0   1_565     S
V16     V10    10.0   1_565     S
V16     V18    10.0   1_554     S
V16     V17    10.0   .     S
V17     V48    10.0   .     S
V17     V47    10.0   .     S
V17     V15    10.0   1_565     S
V17     V11    10.0   1_565     S
V17     V18    10.0   .     S
V18     V4    10.0   1_556     S
V18     V46    10.0   1_556     S
V18     V48    10.0   .     S
V18     V13    10.0   1_566     S
V18     V12    10.0   1_565     S
V18     V16    10.0   1_556     S
V19     V46    10.0   .     S
V19     V47    10.0   .     S
V19     V23    10.0   1_455     S
V19     V25    10.0   1_455     S
V19     V21    10.0   1_554     S
V19     V20    10.0   .     S
V19     V35    10.0   .     S
V19     V34    10.0   .     S
V20     V47    10.0   .     S
V20     V48    10.0   .     S
V20     V24    10.0   1_455     S
V20     V26    10.0   1_455     S
V20     V21    10.0   .     S
V20     V36    10.0   .     S
V20     V35    10.0   .     S
V21     V48    10.0   .     S
V21     V46    10.0   1_556     S
V21     V22    10.0   1_456     S
V21     V27    10.0   1_455     S
V21     V19    10.0   1_556     S
V21     V34    10.0   1_556     S
V21     V36    10.0   .     S
V22     V49    10.0   1_665     S
V22     V51    10.0   1_664     S
V22     V25    10.0   .     S
V22     V21    10.0   1_654     S
V22     V23    10.0   .     S
V22     V24    10.0   1_554     S
V22     V3    10.0   1_554     S
V23     V50    10.0   1_665     S
V23     V49    10.0   1_665     S
V23     V26    10.0   .     S
V23     V19    10.0   1_655     S
V23     V24    10.0   .     S
V24     V51    10.0   1_665     S
V24     V50    10.0   1_665     S
V24     V27    10.0   .     S
V24     V20    10.0   1_655     S
V24     V22    10.0   1_556     S
V25     V19    10.0   1_655     S
V25     V27    10.0   1_554     S
V25     V26    10.0   .     S
V25     V28    10.0   .     S
V25     V29    10.0   .     S
V26     V20    10.0   1_655     S
V26     V27    10.0   .     S
V26     V29    10.0   .     S
V26     V30    10.0   .     S
V27     V7    10.0   1_556     S
V27     V21    10.0   1_655     S
V27     V25    10.0   1_556     S
V27     V30    10.0   .     S
V27     V28    10.0   1_556     S
V28     V12    10.0   1_554     S
V28     V34    10.0   1_655     S
V28     V33    10.0   1_654     S
V28     V29    10.0   .     S
V28     V30    10.0   1_554     S
V28     V27    10.0   1_554     S
V29     V35    10.0   1_655     S
V29     V31    10.0   1_655     S
V29     V30    10.0   .     S
V30     V36    10.0   1_655     S
V30     V32    10.0   1_655     S
V30     V28    10.0   1_556     S
V31     V14    10.0   1_455     S
V31     V13    10.0   1_455     S
V31     V34    10.0   .     S
V31     V29    10.0   1_455     S
V31     V33    10.0   1_554     S
V31     V32    10.0   .     S
V31     V43    10.0   .     S
V31     V44    10.0   .     S
V32     V15    10.0   1_455     S
V32     V14    10.0   1_455     S
V32     V35    10.0   .     S
V32     V30    10.0   1_455     S
V32     V33    10.0   .     S
V32     V44    10.0   .     S
V32     V45    10.0   .     S
V33     V13    10.0   1_456     S
V33     V15    10.0   1_455     S
V33     V36    10.0   .     S
V33     V28    10.0   1_456     S
V33     V31    10.0   1_556     S
V33     V45    10.0   .     S
V33     V43    10.0   1_556     S
V34     V40    10.0   .     S
V34     V42    10.0   1_554     S
V34     V21    10.0   1_554     S
V34     V28    10.0   1_455     S
V34     V35    10.0   .     S
V34     V36    10.0   1_554     S
V35     V41    10.0   .     S
V35     V40    10.0   .     S
V35     V29    10.0   1_455     S
V35     V36    10.0   .     S
V36     V42    10.0   .     S
V36     V41    10.0   .     S
V36     V30    10.0   1_455     S
V36     V34    10.0   1_556     S
V37     V40    10.0   .     S
V37     V43    10.0   .     S
V37     V39    10.0   1_554     S
V37     V38    10.0   .     S
V37     V53    10.0   .     S
V37     V52    10.0   .     S
V38     V41    10.0   .     S
V38     V44    10.0   .     S
V38     V39    10.0   .     S
V38     V54    10.0   .     S
V38     V53    10.0   .     S
V39     V7    10.0   1_556     S
V39     V42    10.0   .     S
V39     V45    10.0   .     S
V39     V37    10.0   1_556     S
V39     V52    10.0   1_556     S
V39     V54    10.0   .     S
V40     V44    10.0   .     S
V40     V42    10.0   1_554     S
V40     V41    10.0   .     S
V41     V45    10.0   .     S
V41     V42    10.0   .     S
V42     V4    10.0   1_556     S
V42     V34    10.0   1_556     S
V42     V43    10.0   1_556     S
V42     V40    10.0   1_556     S
V43     V51    10.0   1_554     S
V43     V49    10.0   .     S
V43     V33    10.0   1_554     S
V43     V42    10.0   1_554     S
V43     V44    10.0   .     S
V43     V45    10.0   1_554     S
V44     V49    10.0   .     S
V44     V50    10.0   .     S
V44     V45    10.0   .     S
V45     V50    10.0   .     S
V45     V51    10.0   .     S
V45     V43    10.0   1_556     S
V46     V18    10.0   1_554     S
V46     V21    10.0   1_554     S
V46     V52    10.0   1_565     S
V46     V49    10.0   1_565     S
V46     V47    10.0   .     S
V46     V48    10.0   1_554     S
V47     V53    10.0   1_565     S
V47     V50    10.0   1_565     S
V47     V48    10.0   .     S
V48     V54    10.0   1_565     S
V48     V51    10.0   1_565     S
V48     V46    10.0   1_556     S
V49     V22    10.0   1_445     S
V49     V23    10.0   1_445     S
V49     V53    10.0   .     S
V49     V46    10.0   1_545     S
V49     V51    10.0   1_554     S
V49     V50    10.0   .     S
V50     V23    10.0   1_445     S
V50     V24    10.0   1_445     S
V50     V54    10.0   .     S
V50     V47    10.0   1_545     S
V50     V51    10.0   .     S
V51     V24    10.0   1_445     S
V51     V22    10.0   1_446     S
V51     V43    10.0   1_556     S
V51     V52    10.0   1_556     S
V51     V48    10.0   1_545     S
V51     V49    10.0   1_556     S
V52     V39    10.0   1_554     S
V52     V51    10.0   1_554     S
V52     V46    10.0   1_545     S
V52     V53    10.0   .     S
V52     V54    10.0   1_554     S
V52     V12    10.0   1_554     S
V53     V47    10.0   1_545     S
V53     V54    10.0   .     S
V54     V48    10.0   1_545     S
V54     V52    10.0   1_556     S
