data_ecc
_audit_creation_date              2019-12-31
_audit_creation_method            'Pymatgen'
_symmetry_space_group_name_H-M    'P1'
_symmetry_Int_Tables_number       1
loop_
_symmetry_equiv_pos_as_xyz
  x,y,z
_cell_length_a                    31.85
_cell_length_b                    31.85
_cell_length_c                    32.66
_cell_angle_alpha                 90.0
_cell_angle_beta                 90.0
_cell_angle_gamma                 120.0
loop_
_atom_site_label
_atom_site_type_symbol
_atom_site_fract_x
_atom_site_fract_y
_atom_site_fract_z
V1     V     0.1521   0.6667   0.4583
V2     V     0.1521   0.6667   0.9583
V3     V     0.1521   0.4854   0.2083
V4     V     0.1521   0.4854   0.7083
V5     V     0.5146   0.6667   0.2083
V6     V     0.5146   0.6667   0.7083
V7     V     0.3333   0.4854   0.4583
V8     V     0.3333   0.4854   0.9583
V9     V     0.5146   0.8479   0.4583
V10     V     0.5146   0.8479   0.9583
V11     V     0.3333   0.8479   0.2083
V12     V     0.3333   0.8479   0.7083
V13     V     0.8187   0.8187   0.375
V14     V     0.8187   0.8187   0.875
V15     V     0.8187   0.0   0.125
V16     V     0.8187   0.0   0.625
V17     V     1.0   0.8187   0.125
V18     V     1.0   0.8187   0.625
V19     V     1.0   0.1813   0.375
V20     V     1.0   0.1813   0.875
V21     V     0.1813   0.1813   0.125
V22     V     0.1813   0.1813   0.625
V23     V     0.1813   0.0   0.375
V24     V     0.1813   0.0   0.875
V25     V     0.8479   0.3333   0.0417
V26     V     0.8479   0.3333   0.5417
V27     V     0.8479   0.5146   0.2917
V28     V     0.8479   0.5146   0.7917
V29     V     0.6667   0.5146   0.0417
V30     V     0.6667   0.5146   0.5417
V31     V     0.4854   0.3333   0.2917
V32     V     0.4854   0.3333   0.7917
V33     V     0.4854   0.1521   0.0417
V34     V     0.4854   0.1521   0.5417
V35     V     0.6667   0.1521   0.2917
V36     V     0.6667   0.1521   0.7917
loop_
_geom_bond_atom_site_label_1
_geom_bond_atom_site_label_2
_geom_bond_distance
_geom_bond_site_symmetry_2
_ccdc_geom_bond_type
V1     V3    10.0   .     S
V1     V12    10.0   .     S
V1     V7    10.0   .     S
V1     V4    10.0   .     S
V1     V11    10.0   .     S
V1     V9    10.0   .     S
V1     V18    10.0   1_455     S
V1     V27    10.0   1_455     S
V2     V4    10.0   .     S
V2     V11    10.0   1_556     S
V2     V8    10.0   .     S
V2     V3    10.0   1_556     S
V2     V12    10.0   .     S
V2     V10    10.0   .     S
V2     V17    10.0   1_456     S
V2     V28    10.0   1_455     S
V3     V25    10.0   1_455     S
V3     V19    10.0   1_455     S
V3     V11    10.0   .     S
V3     V7    10.0   .     S
V3     V2    10.0   1_554     S
V3     V5    10.0   .     S
V3     V8    10.0   1_554     S
V4     V26    10.0   1_455     S
V4     V20    10.0   1_455     S
V4     V12    10.0   .     S
V4     V8    10.0   .     S
V4     V6    10.0   .     S
V4     V7    10.0   .     S
V5     V13    10.0   .     S
V5     V9    10.0   .     S
V5     V8    10.0   1_554     S
V5     V7    10.0   .     S
V5     V11    10.0   .     S
V5     V10    10.0   1_554     S
V5     V29    10.0   .     S
V6     V14    10.0   .     S
V6     V10    10.0   .     S
V6     V7    10.0   .     S
V6     V8    10.0   .     S
V6     V12    10.0   .     S
V6     V9    10.0   .     S
V6     V30    10.0   .     S
V7     V22    10.0   .     S
V7     V31    10.0   .     S
V7     V9    10.0   .     S
V8     V21    10.0   1_556     S
V8     V32    10.0   .     S
V8     V10    10.0   .     S
V8     V5    10.0   1_556     S
V8     V3    10.0   1_556     S
V9     V35    10.0   1_565     S
V9     V11    10.0   .     S
V9     V12    10.0   .     S
V9     V16    10.0   1_565     S
V10     V36    10.0   1_565     S
V10     V12    10.0   .     S
V10     V5    10.0   1_556     S
V10     V11    10.0   1_556     S
V10     V15    10.0   1_566     S
V11     V33    10.0   1_565     S
V11     V23    10.0   1_565     S
V11     V2    10.0   1_554     S
V11     V10    10.0   1_554     S
V12     V34    10.0   1_565     S
V12     V24    10.0   1_565     S
V13     V30    10.0   .     S
V13     V15    10.0   1_565     S
V13     V18    10.0   .     S
V13     V16    10.0   1_565     S
V13     V19    10.0   1_565     S
V13     V23    10.0   1_665     S
V13     V17    10.0   .     S
V14     V29    10.0   1_556     S
V14     V16    10.0   1_565     S
V14     V17    10.0   1_556     S
V14     V15    10.0   1_566     S
V14     V20    10.0   1_565     S
V14     V24    10.0   1_665     S
V14     V18    10.0   .     S
V15     V10    10.0   1_544     S
V15     V35    10.0   .     S
V15     V17    10.0   1_545     S
V15     V13    10.0   1_545     S
V15     V14    10.0   1_544     S
V15     V19    10.0   .     S
V15     V21    10.0   1_655     S
V15     V20    10.0   1_554     S
V16     V9    10.0   1_545     S
V16     V36    10.0   .     S
V16     V18    10.0   1_545     S
V16     V14    10.0   1_545     S
V16     V13    10.0   1_545     S
V16     V20    10.0   .     S
V16     V22    10.0   1_655     S
V16     V19    10.0   .     S
V17     V27    10.0   .     S
V17     V2    10.0   1_654     S
V17     V15    10.0   1_565     S
V17     V14    10.0   1_554     S
V17     V24    10.0   1_664     S
V17     V23    10.0   1_665     S
V17     V21    10.0   1_665     S
V18     V28    10.0   .     S
V18     V1    10.0   1_655     S
V18     V16    10.0   1_565     S
V18     V23    10.0   1_665     S
V18     V24    10.0   1_665     S
V18     V22    10.0   1_665     S
V19     V3    10.0   1_655     S
V19     V26    10.0   .     S
V19     V13    10.0   1_545     S
V19     V21    10.0   1_655     S
V19     V23    10.0   1_655     S
V19     V22    10.0   1_655     S
V20     V4    10.0   1_655     S
V20     V25    10.0   1_556     S
V20     V14    10.0   1_545     S
V20     V15    10.0   1_556     S
V20     V22    10.0   1_655     S
V20     V24    10.0   1_655     S
V20     V21    10.0   1_656     S
V21     V8    10.0   1_554     S
V21     V31    10.0   .     S
V21     V15    10.0   1_455     S
V21     V19    10.0   1_455     S
V21     V23    10.0   .     S
V21     V20    10.0   1_454     S
V21     V17    10.0   1_445     S
V21     V24    10.0   1_554     S
V22     V32    10.0   .     S
V22     V16    10.0   1_455     S
V22     V20    10.0   1_455     S
V22     V24    10.0   .     S
V22     V19    10.0   1_455     S
V22     V18    10.0   1_445     S
V22     V23    10.0   .     S
V23     V34    10.0   .     S
V23     V11    10.0   1_545     S
V23     V13    10.0   1_445     S
V23     V18    10.0   1_445     S
V23     V19    10.0   1_455     S
V23     V17    10.0   1_445     S
V24     V33    10.0   1_556     S
V24     V12    10.0   1_545     S
V24     V14    10.0   1_445     S
V24     V17    10.0   1_446     S
V24     V20    10.0   1_455     S
V24     V18    10.0   1_445     S
V24     V21    10.0   1_556     S
V25     V3    10.0   1_655     S
V25     V20    10.0   1_554     S
V25     V36    10.0   1_554     S
V25     V27    10.0   .     S
V25     V29    10.0   .     S
V25     V28    10.0   1_554     S
V25     V33    10.0   .     S
V25     V35    10.0   .     S
V26     V4    10.0   1_655     S
V26     V35    10.0   .     S
V26     V28    10.0   .     S
V26     V30    10.0   .     S
V26     V27    10.0   .     S
V26     V34    10.0   .     S
V26     V36    10.0   .     S
V27     V1    10.0   1_655     S
V27     V35    10.0   .     S
V27     V29    10.0   .     S
V27     V30    10.0   .     S
V27     V31    10.0   .     S
V28     V2    10.0   1_655     S
V28     V36    10.0   .     S
V28     V25    10.0   1_556     S
V28     V30    10.0   .     S
V28     V29    10.0   1_556     S
V28     V32    10.0   .     S
V29     V14    10.0   1_554     S
V29     V28    10.0   1_554     S
V29     V31    10.0   .     S
V29     V33    10.0   .     S
V29     V32    10.0   1_554     S
V30     V32    10.0   .     S
V30     V34    10.0   .     S
V30     V31    10.0   .     S
V31     V33    10.0   .     S
V31     V34    10.0   .     S
V31     V35    10.0   .     S
V32     V29    10.0   1_556     S
V32     V34    10.0   .     S
V32     V33    10.0   1_556     S
V32     V36    10.0   .     S
V33     V11    10.0   1_545     S
V33     V24    10.0   1_554     S
V33     V32    10.0   1_554     S
V33     V35    10.0   .     S
V33     V36    10.0   1_554     S
V34     V12    10.0   1_545     S
V34     V36    10.0   .     S
V34     V35    10.0   .     S
V35     V9    10.0   1_545     S
V36     V10    10.0   1_545     S
V36     V25    10.0   1_556     S
V36     V33    10.0   1_556     S
