data_ecd
_audit_creation_date              2019-12-31
_audit_creation_method            'Pymatgen'
_symmetry_space_group_name_H-M    'P1'
_symmetry_Int_Tables_number       1
loop_
_symmetry_equiv_pos_as_xyz
  x,y,z
_cell_length_a                    32.5478
_cell_length_b                    32.5478
_cell_length_c                    39.1142
_cell_angle_alpha                 90.0
_cell_angle_beta                 90.0
_cell_angle_gamma                 120.0
loop_
_atom_site_label
_atom_site_type_symbol
_atom_site_fract_x
_atom_site_fract_y
_atom_site_fract_z
V1     V     0.0   0.5322   0.125
V2     V     0.0   0.5322   0.625
V3     V     0.8655   0.6667   0.4583
V4     V     0.8655   0.6667   0.9583
V5     V     0.4678   0.0   0.375
V6     V     0.4678   0.0   0.875
V7     V     0.3333   0.1345   0.2083
V8     V     0.3333   0.1345   0.7083
V9     V     0.5322   0.0   0.125
V10     V     0.5322   0.0   0.625
V11     V     0.6667   0.8655   0.2917
V12     V     0.6667   0.8655   0.7917
V13     V     0.1345   0.8012   0.2917
V14     V     0.1345   0.8012   0.7917
V15     V     0.8655   0.1988   0.2083
V16     V     0.8655   0.1988   0.7083
V17     V     0.3333   0.1988   0.4583
V18     V     0.3333   0.1988   0.9583
V19     V     0.1988   0.3333   0.2917
V20     V     0.1988   0.3333   0.7917
V21     V     0.4678   0.4678   0.125
V22     V     0.4678   0.4678   0.625
V23     V     0.6667   0.8012   0.0417
V24     V     0.6667   0.8012   0.5417
V25     V     0.8012   0.6667   0.2083
V26     V     0.8012   0.6667   0.7083
V27     V     0.5322   0.5322   0.375
V28     V     0.5322   0.5322   0.875
V29     V     0.8012   0.1345   0.4583
V30     V     0.8012   0.1345   0.9583
V31     V     0.1988   0.8655   0.0417
V32     V     0.1988   0.8655   0.5417
V33     V     0.0   0.4678   0.375
V34     V     0.0   0.4678   0.875
V35     V     0.1345   0.3333   0.0417
V36     V     0.1345   0.3333   0.5417
loop_
_geom_bond_atom_site_label_1
_geom_bond_atom_site_label_2
_geom_bond_distance
_geom_bond_site_symmetry_2
_ccdc_geom_bond_type
V1     V4    10.0   1_454     S
V1     V31    10.0   .     S
V1     V35    10.0   .     S
V1     V15    10.0   1_455     S
V1     V13    10.0   .     S
V1     V25    10.0   1_455     S
V1     V33    10.0   .     S
V1     V34    10.0   1_554     S
V2     V3    10.0   1_455     S
V2     V32    10.0   .     S
V2     V36    10.0   .     S
V2     V16    10.0   1_455     S
V2     V14    10.0   .     S
V2     V26    10.0   1_455     S
V2     V34    10.0   .     S
V2     V33    10.0   .     S
V3     V2    10.0   1_655     S
V3     V32    10.0   1_655     S
V3     V13    10.0   1_655     S
V3     V33    10.0   1_655     S
V3     V26    10.0   .     S
V3     V27    10.0   .     S
V3     V24    10.0   .     S
V3     V25    10.0   .     S
V4     V1    10.0   1_656     S
V4     V31    10.0   1_656     S
V4     V14    10.0   1_655     S
V4     V34    10.0   1_655     S
V4     V25    10.0   1_556     S
V4     V28    10.0   .     S
V4     V23    10.0   1_556     S
V4     V26    10.0   .     S
V5     V7    10.0   .     S
V5     V13    10.0   1_545     S
V5     V32    10.0   1_545     S
V5     V17    10.0   .     S
V5     V10    10.0   .     S
V5     V11    10.0   1_545     S
V5     V29    10.0   .     S
V5     V9    10.0   .     S
V6     V8    10.0   .     S
V6     V14    10.0   1_545     S
V6     V31    10.0   1_546     S
V6     V18    10.0   .     S
V6     V9    10.0   1_556     S
V6     V12    10.0   1_545     S
V6     V30    10.0   .     S
V6     V10    10.0   .     S
V7     V13    10.0   1_545     S
V7     V17    10.0   .     S
V7     V18    10.0   1_554     S
V7     V21    10.0   .     S
V7     V19    10.0   .     S
V7     V31    10.0   1_545     S
V7     V9    10.0   .     S
V8     V14    10.0   1_545     S
V8     V18    10.0   .     S
V8     V17    10.0   .     S
V8     V22    10.0   .     S
V8     V20    10.0   .     S
V8     V32    10.0   1_545     S
V8     V10    10.0   .     S
V9     V11    10.0   1_545     S
V9     V15    10.0   .     S
V9     V30    10.0   1_554     S
V9     V23    10.0   1_545     S
V9     V6    10.0   1_554     S
V9     V31    10.0   1_545     S
V10     V12    10.0   1_545     S
V10     V16    10.0   .     S
V10     V29    10.0   .     S
V10     V24    10.0   1_545     S
V10     V32    10.0   1_545     S
V11     V9    10.0   1_565     S
V11     V15    10.0   1_565     S
V11     V23    10.0   .     S
V11     V27    10.0   .     S
V11     V25    10.0   .     S
V11     V24    10.0   .     S
V11     V29    10.0   1_565     S
V11     V5    10.0   1_565     S
V12     V10    10.0   1_565     S
V12     V16    10.0   1_565     S
V12     V24    10.0   .     S
V12     V28    10.0   .     S
V12     V26    10.0   .     S
V12     V23    10.0   1_556     S
V12     V30    10.0   1_565     S
V12     V6    10.0   1_565     S
V13     V7    10.0   1_565     S
V13     V5    10.0   1_565     S
V13     V3    10.0   1_455     S
V13     V33    10.0   .     S
V13     V32    10.0   .     S
V13     V25    10.0   1_455     S
V13     V31    10.0   .     S
V14     V8    10.0   1_565     S
V14     V6    10.0   1_565     S
V14     V4    10.0   1_455     S
V14     V34    10.0   .     S
V14     V31    10.0   1_556     S
V14     V26    10.0   1_455     S
V14     V32    10.0   .     S
V15     V11    10.0   1_545     S
V15     V35    10.0   1_655     S
V15     V1    10.0   1_655     S
V15     V30    10.0   1_554     S
V15     V33    10.0   1_655     S
V15     V19    10.0   1_655     S
V15     V29    10.0   .     S
V16     V12    10.0   1_545     S
V16     V36    10.0   1_655     S
V16     V2    10.0   1_655     S
V16     V29    10.0   .     S
V16     V34    10.0   1_655     S
V16     V20    10.0   1_655     S
V16     V30    10.0   .     S
V17     V32    10.0   1_545     S
V17     V19    10.0   .     S
V17     V27    10.0   .     S
V17     V22    10.0   .     S
V17     V36    10.0   .     S
V18     V31    10.0   1_546     S
V18     V20    10.0   .     S
V18     V28    10.0   .     S
V18     V21    10.0   1_556     S
V18     V35    10.0   1_556     S
V18     V7    10.0   1_556     S
V19     V27    10.0   .     S
V19     V36    10.0   .     S
V19     V21    10.0   .     S
V19     V35    10.0   .     S
V19     V33    10.0   .     S
V19     V15    10.0   1_455     S
V20     V28    10.0   .     S
V20     V35    10.0   1_556     S
V20     V22    10.0   .     S
V20     V36    10.0   .     S
V20     V34    10.0   .     S
V20     V16    10.0   1_455     S
V21     V18    10.0   1_554     S
V21     V35    10.0   .     S
V21     V25    10.0   .     S
V21     V23    10.0   .     S
V21     V28    10.0   1_554     S
V21     V27    10.0   .     S
V22     V36    10.0   .     S
V22     V26    10.0   .     S
V22     V24    10.0   .     S
V22     V27    10.0   .     S
V22     V28    10.0   .     S
V23     V9    10.0   1_565     S
V23     V30    10.0   1_564     S
V23     V25    10.0   .     S
V23     V28    10.0   1_554     S
V23     V4    10.0   1_554     S
V23     V12    10.0   1_554     S
V24     V10    10.0   1_565     S
V24     V29    10.0   1_565     S
V24     V26    10.0   .     S
V24     V27    10.0   .     S
V25     V4    10.0   1_554     S
V25     V27    10.0   .     S
V25     V1    10.0   1_655     S
V25     V13    10.0   1_655     S
V26     V28    10.0   .     S
V26     V2    10.0   1_655     S
V26     V14    10.0   1_655     S
V28     V23    10.0   1_556     S
V28     V21    10.0   1_556     S
V29     V24    10.0   1_545     S
V29     V11    10.0   1_545     S
V29     V36    10.0   1_655     S
V29     V33    10.0   1_655     S
V30     V9    10.0   1_556     S
V30     V23    10.0   1_546     S
V30     V15    10.0   1_556     S
V30     V12    10.0   1_545     S
V30     V35    10.0   1_656     S
V30     V34    10.0   1_655     S
V31     V4    10.0   1_454     S
V31     V6    10.0   1_564     S
V31     V18    10.0   1_564     S
V31     V14    10.0   1_554     S
V31     V7    10.0   1_565     S
V31     V9    10.0   1_565     S
V32     V3    10.0   1_455     S
V32     V5    10.0   1_565     S
V32     V17    10.0   1_565     S
V32     V8    10.0   1_565     S
V32     V10    10.0   1_565     S
V33     V3    10.0   1_455     S
V33     V15    10.0   1_455     S
V33     V36    10.0   .     S
V33     V29    10.0   1_455     S
V34     V4    10.0   1_455     S
V34     V16    10.0   1_455     S
V34     V35    10.0   1_556     S
V34     V30    10.0   1_455     S
V34     V1    10.0   1_556     S
V35     V15    10.0   1_455     S
V35     V20    10.0   1_554     S
V35     V18    10.0   1_554     S
V35     V34    10.0   1_554     S
V35     V30    10.0   1_454     S
V36     V16    10.0   1_455     S
V36     V29    10.0   1_455     S
