data_ece
_audit_creation_date              2019-12-31
_audit_creation_method            'Pymatgen'
_symmetry_space_group_name_H-M    'P1'
_symmetry_Int_Tables_number       1
loop_
_symmetry_equiv_pos_as_xyz
  x,y,z
_cell_length_a                    37.5832
_cell_length_b                    37.5832
_cell_length_c                    39.1136
_cell_angle_alpha                 90.0
_cell_angle_beta                 90.0
_cell_angle_gamma                 120.0
loop_
_atom_site_label
_atom_site_type_symbol
_atom_site_fract_x
_atom_site_fract_y
_atom_site_fract_z
V1     V     0.4678   0.2339   0.2917
V2     V     0.4678   0.2339   0.7917
V3     V     0.4678   0.7339   0.2917
V4     V     0.4678   0.7339   0.7917
V5     V     0.9678   0.2339   0.2917
V6     V     0.9678   0.2339   0.7917
V7     V     0.9678   0.7339   0.2917
V8     V     0.9678   0.7339   0.7917
V9     V     0.2339   0.4678   0.375
V10     V     0.2339   0.4678   0.875
V11     V     0.2339   0.9678   0.375
V12     V     0.2339   0.9678   0.875
V13     V     0.7339   0.4678   0.375
V14     V     0.7339   0.4678   0.875
V15     V     0.7339   0.9678   0.375
V16     V     0.7339   0.9678   0.875
V17     V     0.2661   0.0322   0.125
V18     V     0.2661   0.0322   0.625
V19     V     0.2661   0.5322   0.125
V20     V     0.2661   0.5322   0.625
V21     V     0.7661   0.0322   0.125
V22     V     0.7661   0.0322   0.625
V23     V     0.7661   0.5322   0.125
V24     V     0.7661   0.5322   0.625
V25     V     0.2661   0.2339   0.4583
V26     V     0.2661   0.2339   0.9583
V27     V     0.2661   0.7339   0.4583
V28     V     0.2661   0.7339   0.9583
V29     V     0.7661   0.2339   0.4583
V30     V     0.7661   0.2339   0.9583
V31     V     0.7661   0.7339   0.4583
V32     V     0.7661   0.7339   0.9583
V33     V     0.2339   0.2661   0.2083
V34     V     0.2339   0.2661   0.7083
V35     V     0.2339   0.7661   0.2083
V36     V     0.2339   0.7661   0.7083
V37     V     0.7339   0.2661   0.2083
V38     V     0.7339   0.2661   0.7083
V39     V     0.7339   0.7661   0.2083
V40     V     0.7339   0.7661   0.7083
V41     V     0.0322   0.2661   0.0417
V42     V     0.0322   0.2661   0.5417
V43     V     0.0322   0.7661   0.0417
V44     V     0.0322   0.7661   0.5417
V45     V     0.5322   0.2661   0.0417
V46     V     0.5322   0.2661   0.5417
V47     V     0.5322   0.7661   0.0417
V48     V     0.5322   0.7661   0.5417
loop_
_geom_bond_atom_site_label_1
_geom_bond_atom_site_label_2
_geom_bond_distance
_geom_bond_site_symmetry_2
_ccdc_geom_bond_type
V1     V46    10.0   .     S
V1     V33    10.0   .     S
V1     V11    10.0   1_545     S
V1     V17    10.0   .     S
V1     V13    10.0   .     S
V1     V37    10.0   .     S
V1     V45    10.0   .     S
V1     V25    10.0   .     S
V2     V45    10.0   1_556     S
V2     V34    10.0   .     S
V2     V12    10.0   1_545     S
V2     V18    10.0   .     S
V2     V14    10.0   .     S
V2     V38    10.0   .     S
V2     V46    10.0   .     S
V2     V26    10.0   .     S
V3     V48    10.0   .     S
V3     V35    10.0   .     S
V3     V9    10.0   .     S
V3     V19    10.0   .     S
V3     V15    10.0   .     S
V3     V39    10.0   .     S
V3     V47    10.0   .     S
V3     V27    10.0   .     S
V4     V47    10.0   1_556     S
V4     V36    10.0   .     S
V4     V10    10.0   .     S
V4     V20    10.0   .     S
V4     V16    10.0   .     S
V4     V40    10.0   .     S
V4     V48    10.0   .     S
V4     V28    10.0   .     S
V5     V42    10.0   1_655     S
V5     V37    10.0   .     S
V5     V15    10.0   1_545     S
V5     V21    10.0   .     S
V5     V9    10.0   1_655     S
V5     V33    10.0   1_655     S
V5     V41    10.0   1_655     S
V5     V29    10.0   .     S
V6     V41    10.0   1_656     S
V6     V38    10.0   .     S
V6     V16    10.0   1_545     S
V6     V22    10.0   .     S
V6     V10    10.0   1_655     S
V6     V34    10.0   1_655     S
V6     V42    10.0   1_655     S
V6     V30    10.0   .     S
V7     V44    10.0   1_655     S
V7     V39    10.0   .     S
V7     V13    10.0   .     S
V7     V23    10.0   .     S
V7     V11    10.0   1_655     S
V7     V35    10.0   1_655     S
V7     V43    10.0   1_655     S
V7     V31    10.0   .     S
V8     V43    10.0   1_656     S
V8     V40    10.0   .     S
V8     V14    10.0   .     S
V8     V24    10.0   .     S
V8     V12    10.0   1_655     S
V8     V36    10.0   1_655     S
V8     V44    10.0   1_655     S
V8     V32    10.0   .     S
V9     V42    10.0   .     S
V9     V20    10.0   .     S
V9     V19    10.0   .     S
V9     V27    10.0   .     S
V9     V25    10.0   .     S
V9     V5    10.0   1_455     S
V9     V33    10.0   .     S
V10     V41    10.0   1_556     S
V10     V19    10.0   1_556     S
V10     V20    10.0   .     S
V10     V28    10.0   .     S
V10     V26    10.0   .     S
V10     V6    10.0   1_455     S
V10     V34    10.0   .     S
V11     V1    10.0   1_565     S
V11     V44    10.0   .     S
V11     V18    10.0   1_565     S
V11     V17    10.0   1_565     S
V11     V25    10.0   1_565     S
V11     V27    10.0   .     S
V11     V7    10.0   1_455     S
V11     V35    10.0   .     S
V12     V2    10.0   1_565     S
V12     V43    10.0   1_556     S
V12     V17    10.0   1_566     S
V12     V18    10.0   1_565     S
V12     V26    10.0   1_565     S
V12     V28    10.0   .     S
V12     V8    10.0   1_455     S
V12     V36    10.0   .     S
V13     V46    10.0   .     S
V13     V24    10.0   .     S
V13     V23    10.0   .     S
V13     V31    10.0   .     S
V13     V29    10.0   .     S
V13     V37    10.0   .     S
V14     V45    10.0   1_556     S
V14     V23    10.0   1_556     S
V14     V24    10.0   .     S
V14     V32    10.0   .     S
V14     V30    10.0   .     S
V14     V38    10.0   .     S
V15     V5    10.0   1_565     S
V15     V48    10.0   .     S
V15     V22    10.0   1_565     S
V15     V21    10.0   1_565     S
V15     V29    10.0   1_565     S
V15     V31    10.0   .     S
V15     V39    10.0   .     S
V16     V6    10.0   1_565     S
V16     V47    10.0   1_556     S
V16     V21    10.0   1_566     S
V16     V22    10.0   1_565     S
V16     V30    10.0   1_565     S
V16     V32    10.0   .     S
V16     V40    10.0   .     S
V17     V26    10.0   1_554     S
V17     V12    10.0   1_544     S
V17     V11    10.0   1_545     S
V17     V33    10.0   .     S
V17     V45    10.0   .     S
V17     V35    10.0   1_545     S
V17     V43    10.0   1_545     S
V18     V25    10.0   .     S
V18     V11    10.0   1_545     S
V18     V12    10.0   1_545     S
V18     V34    10.0   .     S
V18     V46    10.0   .     S
V18     V36    10.0   1_545     S
V18     V44    10.0   1_545     S
V19     V28    10.0   1_554     S
V19     V10    10.0   1_554     S
V19     V35    10.0   .     S
V19     V47    10.0   .     S
V19     V33    10.0   .     S
V19     V41    10.0   .     S
V20     V27    10.0   .     S
V20     V36    10.0   .     S
V20     V48    10.0   .     S
V20     V34    10.0   .     S
V20     V42    10.0   .     S
V21     V30    10.0   1_554     S
V21     V16    10.0   1_544     S
V21     V15    10.0   1_545     S
V21     V37    10.0   .     S
V21     V41    10.0   1_655     S
V21     V39    10.0   1_545     S
V21     V47    10.0   1_545     S
V22     V29    10.0   .     S
V22     V15    10.0   1_545     S
V22     V16    10.0   1_545     S
V22     V38    10.0   .     S
V22     V42    10.0   1_655     S
V22     V40    10.0   1_545     S
V22     V48    10.0   1_545     S
V23     V32    10.0   1_554     S
V23     V14    10.0   1_554     S
V23     V39    10.0   .     S
V23     V43    10.0   1_655     S
V23     V37    10.0   .     S
V23     V45    10.0   .     S
V24     V31    10.0   .     S
V24     V40    10.0   .     S
V24     V44    10.0   1_655     S
V24     V38    10.0   .     S
V24     V46    10.0   .     S
V25     V34    10.0   .     S
V25     V11    10.0   1_545     S
V25     V46    10.0   .     S
V25     V33    10.0   .     S
V25     V42    10.0   .     S
V26     V17    10.0   1_556     S
V26     V33    10.0   1_556     S
V26     V12    10.0   1_545     S
V26     V45    10.0   1_556     S
V26     V34    10.0   .     S
V26     V41    10.0   1_556     S
V27     V36    10.0   .     S
V27     V48    10.0   .     S
V27     V35    10.0   .     S
V27     V44    10.0   .     S
V28     V19    10.0   1_556     S
V28     V35    10.0   1_556     S
V28     V47    10.0   1_556     S
V28     V36    10.0   .     S
V28     V43    10.0   1_556     S
V29     V38    10.0   .     S
V29     V15    10.0   1_545     S
V29     V42    10.0   1_655     S
V29     V37    10.0   .     S
V29     V46    10.0   .     S
V30     V21    10.0   1_556     S
V30     V37    10.0   1_556     S
V30     V16    10.0   1_545     S
V30     V41    10.0   1_656     S
V30     V38    10.0   .     S
V30     V45    10.0   1_556     S
V31     V40    10.0   .     S
V31     V44    10.0   1_655     S
V31     V39    10.0   .     S
V31     V48    10.0   .     S
V32     V23    10.0   1_556     S
V32     V39    10.0   1_556     S
V32     V43    10.0   1_656     S
V32     V40    10.0   .     S
V32     V47    10.0   1_556     S
V33     V26    10.0   1_554     S
V33     V5    10.0   1_455     S
V33     V41    10.0   .     S
V34     V6    10.0   1_455     S
V34     V42    10.0   .     S
V35     V28    10.0   1_554     S
V35     V17    10.0   1_565     S
V35     V7    10.0   1_455     S
V35     V43    10.0   .     S
V36     V18    10.0   1_565     S
V36     V8    10.0   1_455     S
V36     V44    10.0   .     S
V37     V30    10.0   1_554     S
V37     V45    10.0   .     S
V38     V46    10.0   .     S
V39     V32    10.0   1_554     S
V39     V21    10.0   1_565     S
V39     V47    10.0   .     S
V40     V22    10.0   1_565     S
V40     V48    10.0   .     S
V41     V6    10.0   1_454     S
V41     V10    10.0   1_554     S
V41     V30    10.0   1_454     S
V41     V21    10.0   1_455     S
V41     V5    10.0   1_455     S
V41     V26    10.0   1_554     S
V42     V5    10.0   1_455     S
V42     V29    10.0   1_455     S
V42     V22    10.0   1_455     S
V42     V6    10.0   1_455     S
V43     V8    10.0   1_454     S
V43     V12    10.0   1_554     S
V43     V32    10.0   1_454     S
V43     V23    10.0   1_455     S
V43     V7    10.0   1_455     S
V43     V28    10.0   1_554     S
V43     V17    10.0   1_565     S
V44     V7    10.0   1_455     S
V44     V31    10.0   1_455     S
V44     V24    10.0   1_455     S
V44     V8    10.0   1_455     S
V44     V18    10.0   1_565     S
V45     V2    10.0   1_554     S
V45     V14    10.0   1_554     S
V45     V26    10.0   1_554     S
V45     V30    10.0   1_554     S
V47     V4    10.0   1_554     S
V47     V16    10.0   1_554     S
V47     V28    10.0   1_554     S
V47     V32    10.0   1_554     S
V47     V21    10.0   1_565     S
V48     V22    10.0   1_565     S
