data_ecf
_audit_creation_date              2019-12-31
_audit_creation_method            'Pymatgen'
_symmetry_space_group_name_H-M    'P1'
_symmetry_Int_Tables_number       1
loop_
_symmetry_equiv_pos_as_xyz
  x,y,z
_cell_length_a                    40.0002
_cell_length_b                    40.0002
_cell_length_c                    32.6596
_cell_angle_alpha                 90.0
_cell_angle_beta                 90.0
_cell_angle_gamma                 120.0
loop_
_atom_site_label
_atom_site_type_symbol
_atom_site_fract_x
_atom_site_fract_y
_atom_site_fract_z
V1     V     0.4167   0.3333   0.375
V2     V     0.4167   0.3333   0.875
V3     V     0.4167   0.8333   0.375
V4     V     0.4167   0.8333   0.875
V5     V     0.9167   0.3333   0.375
V6     V     0.9167   0.3333   0.875
V7     V     0.9167   0.8333   0.375
V8     V     0.9167   0.8333   0.875
V9     V     0.4167   0.0833   0.375
V10     V     0.4167   0.0833   0.875
V11     V     0.4167   0.5833   0.375
V12     V     0.4167   0.5833   0.875
V13     V     0.9167   0.0833   0.375
V14     V     0.9167   0.0833   0.875
V15     V     0.9167   0.5833   0.375
V16     V     0.9167   0.5833   0.875
V17     V     0.0833   0.4167   0.125
V18     V     0.0833   0.4167   0.625
V19     V     0.0833   0.9167   0.125
V20     V     0.0833   0.9167   0.625
V21     V     0.5833   0.4167   0.125
V22     V     0.5833   0.4167   0.625
V23     V     0.5833   0.9167   0.125
V24     V     0.5833   0.9167   0.625
V25     V     0.1667   0.0833   0.375
V26     V     0.1667   0.0833   0.875
V27     V     0.1667   0.5833   0.375
V28     V     0.1667   0.5833   0.875
V29     V     0.6667   0.0833   0.375
V30     V     0.6667   0.0833   0.875
V31     V     0.6667   0.5833   0.375
V32     V     0.6667   0.5833   0.875
V33     V     0.0833   0.1667   0.125
V34     V     0.0833   0.1667   0.625
V35     V     0.0833   0.6667   0.125
V36     V     0.0833   0.6667   0.625
V37     V     0.5833   0.1667   0.125
V38     V     0.5833   0.1667   0.625
V39     V     0.5833   0.6667   0.125
V40     V     0.5833   0.6667   0.625
V41     V     0.3333   0.4167   0.125
V42     V     0.3333   0.4167   0.625
V43     V     0.3333   0.9167   0.125
V44     V     0.3333   0.9167   0.625
V45     V     0.8333   0.4167   0.125
V46     V     0.8333   0.4167   0.625
V47     V     0.8333   0.9167   0.125
V48     V     0.8333   0.9167   0.625
loop_
_geom_bond_atom_site_label_1
_geom_bond_atom_site_label_2
_geom_bond_distance
_geom_bond_site_symmetry_2
_ccdc_geom_bond_type
V1     V41    10.0   .     S
V1     V42    10.0   .     S
V1     V25    10.0   .     S
V1     V9    10.0   .     S
V1     V11    10.0   .     S
V1     V31    10.0   .     S
V1     V21    10.0   .     S
V1     V22    10.0   .     S
V2     V42    10.0   .     S
V2     V41    10.0   1_556     S
V2     V26    10.0   .     S
V2     V10    10.0   .     S
V2     V12    10.0   .     S
V2     V32    10.0   .     S
V2     V22    10.0   .     S
V2     V21    10.0   1_556     S
V3     V43    10.0   .     S
V3     V44    10.0   .     S
V3     V27    10.0   .     S
V3     V11    10.0   .     S
V3     V9    10.0   1_565     S
V3     V29    10.0   1_565     S
V3     V23    10.0   .     S
V3     V24    10.0   .     S
V4     V44    10.0   .     S
V4     V43    10.0   1_556     S
V4     V28    10.0   .     S
V4     V12    10.0   .     S
V4     V10    10.0   1_565     S
V4     V30    10.0   1_565     S
V4     V24    10.0   .     S
V4     V23    10.0   1_556     S
V5     V45    10.0   .     S
V5     V46    10.0   .     S
V5     V29    10.0   .     S
V5     V13    10.0   .     S
V5     V15    10.0   .     S
V5     V27    10.0   1_655     S
V5     V17    10.0   1_655     S
V5     V18    10.0   1_655     S
V6     V46    10.0   .     S
V6     V45    10.0   1_556     S
V6     V30    10.0   .     S
V6     V14    10.0   .     S
V6     V16    10.0   .     S
V6     V28    10.0   1_655     S
V6     V18    10.0   1_655     S
V6     V17    10.0   1_656     S
V7     V47    10.0   .     S
V7     V48    10.0   .     S
V7     V31    10.0   .     S
V7     V15    10.0   .     S
V7     V13    10.0   1_565     S
V7     V25    10.0   1_665     S
V7     V19    10.0   1_655     S
V7     V20    10.0   1_655     S
V8     V48    10.0   .     S
V8     V47    10.0   1_556     S
V8     V32    10.0   .     S
V8     V16    10.0   .     S
V8     V14    10.0   1_565     S
V8     V26    10.0   1_665     S
V8     V20    10.0   1_655     S
V8     V19    10.0   1_656     S
V9     V25    10.0   .     S
V9     V3    10.0   1_545     S
V9     V43    10.0   1_545     S
V9     V29    10.0   .     S
V9     V37    10.0   .     S
V9     V44    10.0   1_545     S
V9     V38    10.0   .     S
V10     V26    10.0   .     S
V10     V4    10.0   1_545     S
V10     V44    10.0   1_545     S
V10     V30    10.0   .     S
V10     V38    10.0   .     S
V10     V43    10.0   1_546     S
V10     V37    10.0   1_556     S
V11     V27    10.0   .     S
V11     V41    10.0   .     S
V11     V31    10.0   .     S
V11     V39    10.0   .     S
V11     V42    10.0   .     S
V11     V40    10.0   .     S
V12     V28    10.0   .     S
V12     V42    10.0   .     S
V12     V32    10.0   .     S
V12     V40    10.0   .     S
V12     V41    10.0   1_556     S
V12     V39    10.0   1_556     S
V13     V29    10.0   .     S
V13     V7    10.0   1_545     S
V13     V47    10.0   1_545     S
V13     V25    10.0   1_655     S
V13     V33    10.0   1_655     S
V13     V48    10.0   1_545     S
V13     V34    10.0   1_655     S
V14     V30    10.0   .     S
V14     V8    10.0   1_545     S
V14     V48    10.0   1_545     S
V14     V26    10.0   1_655     S
V14     V34    10.0   1_655     S
V14     V47    10.0   1_546     S
V14     V33    10.0   1_656     S
V15     V31    10.0   .     S
V15     V45    10.0   .     S
V15     V27    10.0   1_655     S
V15     V35    10.0   1_655     S
V15     V46    10.0   .     S
V15     V36    10.0   1_655     S
V16     V32    10.0   .     S
V16     V46    10.0   .     S
V16     V28    10.0   1_655     S
V16     V36    10.0   1_655     S
V16     V45    10.0   1_556     S
V16     V35    10.0   1_656     S
V17     V45    10.0   1_455     S
V17     V41    10.0   .     S
V17     V33    10.0   .     S
V17     V35    10.0   .     S
V17     V27    10.0   .     S
V17     V28    10.0   1_554     S
V17     V5    10.0   1_455     S
V17     V6    10.0   1_454     S
V18     V46    10.0   1_455     S
V18     V42    10.0   .     S
V18     V34    10.0   .     S
V18     V36    10.0   .     S
V18     V28    10.0   .     S
V18     V27    10.0   .     S
V18     V6    10.0   1_455     S
V18     V5    10.0   1_455     S
V19     V47    10.0   1_455     S
V19     V43    10.0   .     S
V19     V35    10.0   .     S
V19     V33    10.0   1_565     S
V19     V25    10.0   1_565     S
V19     V26    10.0   1_564     S
V19     V7    10.0   1_455     S
V19     V8    10.0   1_454     S
V20     V48    10.0   1_455     S
V20     V44    10.0   .     S
V20     V36    10.0   .     S
V20     V34    10.0   1_565     S
V20     V26    10.0   1_565     S
V20     V25    10.0   1_565     S
V20     V8    10.0   1_455     S
V20     V7    10.0   1_455     S
V21     V41    10.0   .     S
V21     V45    10.0   .     S
V21     V37    10.0   .     S
V21     V39    10.0   .     S
V21     V31    10.0   .     S
V21     V32    10.0   1_554     S
V21     V2    10.0   1_554     S
V22     V42    10.0   .     S
V22     V46    10.0   .     S
V22     V38    10.0   .     S
V22     V40    10.0   .     S
V22     V32    10.0   .     S
V22     V31    10.0   .     S
V23     V43    10.0   .     S
V23     V47    10.0   .     S
V23     V39    10.0   .     S
V23     V37    10.0   1_565     S
V23     V29    10.0   1_565     S
V23     V30    10.0   1_564     S
V23     V4    10.0   1_554     S
V24     V44    10.0   .     S
V24     V48    10.0   .     S
V24     V40    10.0   .     S
V24     V38    10.0   1_565     S
V24     V30    10.0   1_565     S
V24     V29    10.0   1_565     S
V25     V7    10.0   1_445     S
V25     V13    10.0   1_455     S
V25     V34    10.0   .     S
V25     V33    10.0   .     S
V25     V19    10.0   1_545     S
V25     V20    10.0   1_545     S
V26     V8    10.0   1_445     S
V26     V14    10.0   1_455     S
V26     V33    10.0   1_556     S
V26     V34    10.0   .     S
V26     V20    10.0   1_545     S
V26     V19    10.0   1_546     S
V27     V5    10.0   1_455     S
V27     V15    10.0   1_455     S
V27     V36    10.0   .     S
V27     V35    10.0   .     S
V28     V6    10.0   1_455     S
V28     V16    10.0   1_455     S
V28     V35    10.0   1_556     S
V28     V36    10.0   .     S
V28     V17    10.0   1_556     S
V29     V3    10.0   1_545     S
V29     V38    10.0   .     S
V29     V37    10.0   .     S
V29     V23    10.0   1_545     S
V29     V24    10.0   1_545     S
V30     V4    10.0   1_545     S
V30     V37    10.0   1_556     S
V30     V38    10.0   .     S
V30     V24    10.0   1_545     S
V30     V23    10.0   1_546     S
V31     V40    10.0   .     S
V31     V39    10.0   .     S
V32     V39    10.0   1_556     S
V32     V40    10.0   .     S
V32     V21    10.0   1_556     S
V33     V41    10.0   .     S
V33     V19    10.0   1_545     S
V33     V47    10.0   1_445     S
V33     V26    10.0   1_554     S
V33     V13    10.0   1_455     S
V33     V14    10.0   1_454     S
V34     V42    10.0   .     S
V34     V20    10.0   1_545     S
V34     V48    10.0   1_445     S
V34     V14    10.0   1_455     S
V34     V13    10.0   1_455     S
V35     V43    10.0   .     S
V35     V45    10.0   1_455     S
V35     V28    10.0   1_554     S
V35     V15    10.0   1_455     S
V35     V16    10.0   1_454     S
V36     V44    10.0   .     S
V36     V46    10.0   1_455     S
V36     V16    10.0   1_455     S
V36     V15    10.0   1_455     S
V37     V45    10.0   .     S
V37     V23    10.0   1_545     S
V37     V43    10.0   1_545     S
V37     V30    10.0   1_554     S
V37     V10    10.0   1_554     S
V38     V46    10.0   .     S
V38     V24    10.0   1_545     S
V38     V44    10.0   1_545     S
V39     V47    10.0   .     S
V39     V41    10.0   .     S
V39     V32    10.0   1_554     S
V39     V12    10.0   1_554     S
V40     V48    10.0   .     S
V40     V42    10.0   .     S
V41     V2    10.0   1_554     S
V41     V12    10.0   1_554     S
V43     V4    10.0   1_554     S
V43     V9    10.0   1_565     S
V43     V37    10.0   1_565     S
V43     V10    10.0   1_564     S
V44     V10    10.0   1_565     S
V44     V38    10.0   1_565     S
V44     V9    10.0   1_565     S
V45     V17    10.0   1_655     S
V45     V6    10.0   1_554     S
V45     V35    10.0   1_655     S
V45     V16    10.0   1_554     S
V46     V18    10.0   1_655     S
V46     V36    10.0   1_655     S
V47     V19    10.0   1_655     S
V47     V8    10.0   1_554     S
V47     V13    10.0   1_565     S
V47     V33    10.0   1_665     S
V47     V14    10.0   1_564     S
V48     V20    10.0   1_655     S
V48     V14    10.0   1_565     S
V48     V34    10.0   1_665     S
V48     V13    10.0   1_565     S
