data_ecg
_audit_creation_date              2019-12-31
_audit_creation_method            'Pymatgen'
_symmetry_space_group_name_H-M    'P1'
_symmetry_Int_Tables_number       1
loop_
_symmetry_equiv_pos_as_xyz
  x,y,z
_cell_length_a                    25.0001
_cell_length_b                    25.0001
_cell_length_c                    29.9997
_cell_angle_alpha                 90.0
_cell_angle_beta                 90.0
_cell_angle_gamma                 120.0
loop_
_atom_site_label
_atom_site_type_symbol
_atom_site_fract_x
_atom_site_fract_y
_atom_site_fract_z
V1     V     0.8   0.6   0.25
V2     V     0.8   0.6   0.5833
V3     V     0.8   0.6   0.9167
V4     V     0.2   0.8   0.0833
V5     V     0.2   0.8   0.4167
V6     V     0.2   0.8   0.75
V7     V     0.2   0.4   0.0833
V8     V     0.2   0.4   0.4167
V9     V     0.2   0.4   0.75
V10     V     0.4   0.2   0.25
V11     V     0.4   0.2   0.5833
V12     V     0.4   0.2   0.9167
V13     V     0.6   0.8   0.0833
V14     V     0.6   0.8   0.4167
V15     V     0.6   0.8   0.75
V16     V     0.8   0.2   0.25
V17     V     0.8   0.2   0.5833
V18     V     0.8   0.2   0.9167
loop_
_geom_bond_atom_site_label_1
_geom_bond_atom_site_label_2
_geom_bond_distance
_geom_bond_site_symmetry_2
_ccdc_geom_bond_type
V1     V3    10.0   1_554     S
V1     V2    10.0   .     S
V1     V5    10.0   1_655     S
V1     V4    10.0   1_655     S
V1     V13    10.0   .     S
V1     V14    10.0   .     S
V1     V16    10.0   .     S
V1     V10    10.0   .     S
V2     V3    10.0   .     S
V2     V6    10.0   1_655     S
V2     V5    10.0   1_655     S
V2     V14    10.0   .     S
V2     V15    10.0   .     S
V2     V17    10.0   .     S
V2     V11    10.0   .     S
V3     V1    10.0   1_556     S
V3     V4    10.0   1_656     S
V3     V6    10.0   1_655     S
V3     V15    10.0   .     S
V3     V13    10.0   1_556     S
V3     V18    10.0   .     S
V3     V12    10.0   .     S
V4     V3    10.0   1_454     S
V4     V1    10.0   1_455     S
V4     V5    10.0   .     S
V4     V6    10.0   1_554     S
V4     V10    10.0   1_565     S
V4     V12    10.0   1_564     S
V4     V7    10.0   .     S
V4     V13    10.0   .     S
V5     V1    10.0   1_455     S
V5     V2    10.0   1_455     S
V5     V6    10.0   .     S
V5     V11    10.0   1_565     S
V5     V10    10.0   1_565     S
V5     V8    10.0   .     S
V5     V14    10.0   .     S
V6     V2    10.0   1_455     S
V6     V3    10.0   1_455     S
V6     V4    10.0   1_556     S
V6     V12    10.0   1_565     S
V6     V11    10.0   1_565     S
V6     V9    10.0   .     S
V6     V15    10.0   .     S
V7     V16    10.0   1_455     S
V7     V18    10.0   1_454     S
V7     V8    10.0   .     S
V7     V9    10.0   1_554     S
V7     V12    10.0   1_554     S
V7     V10    10.0   .     S
V7     V13    10.0   .     S
V8     V17    10.0   1_455     S
V8     V16    10.0   1_455     S
V8     V9    10.0   .     S
V8     V10    10.0   .     S
V8     V11    10.0   .     S
V8     V14    10.0   .     S
V9     V18    10.0   1_455     S
V9     V17    10.0   1_455     S
V9     V7    10.0   1_556     S
V9     V11    10.0   .     S
V9     V12    10.0   .     S
V9     V15    10.0   .     S
V10     V4    10.0   1_545     S
V10     V5    10.0   1_545     S
V10     V12    10.0   1_554     S
V10     V11    10.0   .     S
V10     V16    10.0   .     S
V11     V5    10.0   1_545     S
V11     V6    10.0   1_545     S
V11     V12    10.0   .     S
V11     V17    10.0   .     S
V12     V6    10.0   1_545     S
V12     V4    10.0   1_546     S
V12     V7    10.0   1_556     S
V12     V10    10.0   1_556     S
V12     V18    10.0   .     S
V13     V3    10.0   1_554     S
V13     V14    10.0   .     S
V13     V15    10.0   1_554     S
V13     V18    10.0   1_564     S
V13     V16    10.0   1_565     S
V14     V15    10.0   .     S
V14     V16    10.0   1_565     S
V14     V17    10.0   1_565     S
V15     V13    10.0   1_556     S
V15     V17    10.0   1_565     S
V15     V18    10.0   1_565     S
V16     V7    10.0   1_655     S
V16     V8    10.0   1_655     S
V16     V18    10.0   1_554     S
V16     V17    10.0   .     S
V16     V14    10.0   1_545     S
V16     V13    10.0   1_545     S
V17     V8    10.0   1_655     S
V17     V9    10.0   1_655     S
V17     V18    10.0   .     S
V17     V15    10.0   1_545     S
V17     V14    10.0   1_545     S
V18     V9    10.0   1_655     S
V18     V7    10.0   1_656     S
V18     V16    10.0   1_556     S
V18     V13    10.0   1_546     S
V18     V15    10.0   1_545     S
