data_eci
_audit_creation_date              2019-12-31
_audit_creation_method            'Pymatgen'
_symmetry_space_group_name_H-M    'P1'
_symmetry_Int_Tables_number       1
loop_
_symmetry_equiv_pos_as_xyz
  x,y,z
_cell_length_a                    36.7422
_cell_length_b                    36.7422
_cell_length_c                    30.0003
_cell_angle_alpha                 90.0
_cell_angle_beta                 90.0
_cell_angle_gamma                 90.0
loop_
_atom_site_label
_atom_site_type_symbol
_atom_site_fract_x
_atom_site_fract_y
_atom_site_fract_z
V1     V     0.1667   0.3333   0.25
V2     V     0.1667   0.3333   0.5833
V3     V     0.1667   0.3333   0.9167
V4     V     0.1667   0.8333   0.25
V5     V     0.1667   0.8333   0.5833
V6     V     0.1667   0.8333   0.9167
V7     V     0.6667   0.3333   0.25
V8     V     0.6667   0.3333   0.5833
V9     V     0.6667   0.3333   0.9167
V10     V     0.6667   0.8333   0.25
V11     V     0.6667   0.8333   0.5833
V12     V     0.6667   0.8333   0.9167
V13     V     0.4167   0.4167   0.0
V14     V     0.4167   0.4167   0.3333
V15     V     0.4167   0.4167   0.6667
V16     V     0.4167   0.9167   0.0
V17     V     0.4167   0.9167   0.3333
V18     V     0.4167   0.9167   0.6667
V19     V     0.9167   0.4167   0.0
V20     V     0.9167   0.4167   0.3333
V21     V     0.9167   0.4167   0.6667
V22     V     0.9167   0.9167   0.0
V23     V     0.9167   0.9167   0.3333
V24     V     0.9167   0.9167   0.6667
V25     V     0.3333   0.1667   0.0833
V26     V     0.3333   0.1667   0.4167
V27     V     0.3333   0.1667   0.75
V28     V     0.3333   0.6667   0.0833
V29     V     0.3333   0.6667   0.4167
V30     V     0.3333   0.6667   0.75
V31     V     0.8333   0.1667   0.0833
V32     V     0.8333   0.1667   0.4167
V33     V     0.8333   0.1667   0.75
V34     V     0.8333   0.6667   0.0833
V35     V     0.8333   0.6667   0.4167
V36     V     0.8333   0.6667   0.75
V37     V     0.0833   0.0833   0.1667
V38     V     0.0833   0.0833   0.5
V39     V     0.0833   0.0833   0.8333
V40     V     0.0833   0.5833   0.1667
V41     V     0.0833   0.5833   0.5
V42     V     0.0833   0.5833   0.8333
V43     V     0.5833   0.0833   0.1667
V44     V     0.5833   0.0833   0.5
V45     V     0.5833   0.0833   0.8333
V46     V     0.5833   0.5833   0.1667
V47     V     0.5833   0.5833   0.5
V48     V     0.5833   0.5833   0.8333
loop_
_geom_bond_atom_site_label_1
_geom_bond_atom_site_label_2
_geom_bond_distance
_geom_bond_site_symmetry_2
_ccdc_geom_bond_type
V1     V40    10.0   .     S
V1     V20    10.0   1_455     S
V1     V14    10.0   .     S
V1     V37    10.0   .     S
V1     V25    10.0   .     S
V1     V26    10.0   .     S
V1     V3    10.0   1_554     S
V1     V2    10.0   .     S
V2     V41    10.0   .     S
V2     V21    10.0   1_455     S
V2     V15    10.0   .     S
V2     V38    10.0   .     S
V2     V26    10.0   .     S
V2     V27    10.0   .     S
V2     V3    10.0   .     S
V3     V42    10.0   .     S
V3     V19    10.0   1_456     S
V3     V13    10.0   1_556     S
V3     V39    10.0   .     S
V3     V27    10.0   .     S
V3     V25    10.0   1_556     S
V3     V1    10.0   1_556     S
V4     V37    10.0   1_565     S
V4     V23    10.0   1_455     S
V4     V17    10.0   .     S
V4     V40    10.0   .     S
V4     V28    10.0   .     S
V4     V29    10.0   .     S
V4     V6    10.0   1_554     S
V4     V5    10.0   .     S
V5     V38    10.0   1_565     S
V5     V24    10.0   1_455     S
V5     V18    10.0   .     S
V5     V41    10.0   .     S
V5     V29    10.0   .     S
V5     V30    10.0   .     S
V5     V6    10.0   .     S
V6     V39    10.0   1_565     S
V6     V22    10.0   1_456     S
V6     V16    10.0   1_556     S
V6     V42    10.0   .     S
V6     V30    10.0   .     S
V6     V28    10.0   1_556     S
V6     V4    10.0   1_556     S
V7     V46    10.0   .     S
V7     V14    10.0   .     S
V7     V20    10.0   .     S
V7     V43    10.0   .     S
V7     V31    10.0   .     S
V7     V32    10.0   .     S
V7     V9    10.0   1_554     S
V7     V8    10.0   .     S
V8     V47    10.0   .     S
V8     V15    10.0   .     S
V8     V21    10.0   .     S
V8     V44    10.0   .     S
V8     V32    10.0   .     S
V8     V33    10.0   .     S
V8     V9    10.0   .     S
V9     V48    10.0   .     S
V9     V13    10.0   1_556     S
V9     V19    10.0   1_556     S
V9     V45    10.0   .     S
V9     V33    10.0   .     S
V9     V31    10.0   1_556     S
V9     V7    10.0   1_556     S
V10     V43    10.0   1_565     S
V10     V17    10.0   .     S
V10     V23    10.0   .     S
V10     V46    10.0   .     S
V10     V34    10.0   .     S
V10     V35    10.0   .     S
V10     V12    10.0   1_554     S
V10     V11    10.0   .     S
V11     V44    10.0   1_565     S
V11     V18    10.0   .     S
V11     V24    10.0   .     S
V11     V47    10.0   .     S
V11     V35    10.0   .     S
V11     V36    10.0   .     S
V11     V12    10.0   .     S
V12     V45    10.0   1_565     S
V12     V16    10.0   1_556     S
V12     V22    10.0   1_556     S
V12     V48    10.0   .     S
V12     V36    10.0   .     S
V12     V34    10.0   1_556     S
V12     V10    10.0   1_556     S
V13     V28    10.0   .     S
V13     V9    10.0   1_554     S
V13     V48    10.0   1_554     S
V13     V3    10.0   1_554     S
V13     V25    10.0   .     S
V13     V46    10.0   .     S
V13     V14    10.0   .     S
V13     V15    10.0   1_554     S
V14     V29    10.0   .     S
V14     V46    10.0   .     S
V14     V26    10.0   .     S
V14     V47    10.0   .     S
V14     V15    10.0   .     S
V15     V30    10.0   .     S
V15     V47    10.0   .     S
V15     V27    10.0   .     S
V15     V48    10.0   .     S
V15     V13    10.0   1_556     S
V16     V25    10.0   1_565     S
V16     V12    10.0   1_554     S
V16     V45    10.0   1_564     S
V16     V6    10.0   1_554     S
V16     V28    10.0   .     S
V16     V43    10.0   1_565     S
V16     V17    10.0   .     S
V16     V18    10.0   1_554     S
V17     V26    10.0   1_565     S
V17     V43    10.0   1_565     S
V17     V29    10.0   .     S
V17     V44    10.0   1_565     S
V17     V18    10.0   .     S
V18     V27    10.0   1_565     S
V18     V44    10.0   1_565     S
V18     V30    10.0   .     S
V18     V45    10.0   1_565     S
V18     V16    10.0   1_556     S
V19     V34    10.0   .     S
V19     V3    10.0   1_654     S
V19     V42    10.0   1_654     S
V19     V9    10.0   1_554     S
V19     V31    10.0   .     S
V19     V40    10.0   1_655     S
V19     V20    10.0   .     S
V19     V21    10.0   1_554     S
V20     V35    10.0   .     S
V20     V1    10.0   1_655     S
V20     V40    10.0   1_655     S
V20     V32    10.0   .     S
V20     V41    10.0   1_655     S
V20     V21    10.0   .     S
V21     V36    10.0   .     S
V21     V2    10.0   1_655     S
V21     V41    10.0   1_655     S
V21     V33    10.0   .     S
V21     V42    10.0   1_655     S
V21     V19    10.0   1_556     S
V22     V31    10.0   1_565     S
V22     V6    10.0   1_654     S
V22     V39    10.0   1_664     S
V22     V12    10.0   1_554     S
V22     V34    10.0   .     S
V22     V37    10.0   1_665     S
V22     V23    10.0   .     S
V22     V24    10.0   1_554     S
V23     V32    10.0   1_565     S
V23     V4    10.0   1_655     S
V23     V37    10.0   1_665     S
V23     V35    10.0   .     S
V23     V38    10.0   1_665     S
V23     V24    10.0   .     S
V24     V33    10.0   1_565     S
V24     V5    10.0   1_655     S
V24     V38    10.0   1_665     S
V24     V36    10.0   .     S
V24     V39    10.0   1_665     S
V24     V22    10.0   1_556     S
V25     V16    10.0   1_545     S
V25     V37    10.0   .     S
V25     V43    10.0   .     S
V25     V3    10.0   1_554     S
V25     V26    10.0   .     S
V25     V27    10.0   1_554     S
V26     V17    10.0   1_545     S
V26     V38    10.0   .     S
V26     V44    10.0   .     S
V26     V27    10.0   .     S
V27     V18    10.0   1_545     S
V27     V39    10.0   .     S
V27     V45    10.0   .     S
V27     V25    10.0   1_556     S
V28     V40    10.0   .     S
V28     V46    10.0   .     S
V28     V6    10.0   1_554     S
V28     V29    10.0   .     S
V28     V30    10.0   1_554     S
V29     V41    10.0   .     S
V29     V47    10.0   .     S
V29     V30    10.0   .     S
V30     V42    10.0   .     S
V30     V48    10.0   .     S
V30     V28    10.0   1_556     S
V31     V22    10.0   1_545     S
V31     V43    10.0   .     S
V31     V37    10.0   1_655     S
V31     V9    10.0   1_554     S
V31     V32    10.0   .     S
V31     V33    10.0   1_554     S
V32     V23    10.0   1_545     S
V32     V44    10.0   .     S
V32     V38    10.0   1_655     S
V32     V33    10.0   .     S
V33     V24    10.0   1_545     S
V33     V45    10.0   .     S
V33     V39    10.0   1_655     S
V33     V31    10.0   1_556     S
V34     V46    10.0   .     S
V34     V40    10.0   1_655     S
V34     V12    10.0   1_554     S
V34     V35    10.0   .     S
V34     V36    10.0   1_554     S
V35     V47    10.0   .     S
V35     V41    10.0   1_655     S
V35     V36    10.0   .     S
V36     V48    10.0   .     S
V36     V42    10.0   1_655     S
V36     V34    10.0   1_556     S
V37     V4    10.0   1_545     S
V37     V23    10.0   1_445     S
V37     V31    10.0   1_455     S
V37     V22    10.0   1_445     S
V37     V39    10.0   1_554     S
V37     V38    10.0   .     S
V38     V5    10.0   1_545     S
V38     V24    10.0   1_445     S
V38     V32    10.0   1_455     S
V38     V23    10.0   1_445     S
V38     V39    10.0   .     S
V39     V6    10.0   1_545     S
V39     V22    10.0   1_446     S
V39     V33    10.0   1_455     S
V39     V24    10.0   1_445     S
V39     V37    10.0   1_556     S
V40     V20    10.0   1_455     S
V40     V34    10.0   1_455     S
V40     V19    10.0   1_455     S
V40     V42    10.0   1_554     S
V40     V41    10.0   .     S
V41     V21    10.0   1_455     S
V41     V35    10.0   1_455     S
V41     V20    10.0   1_455     S
V41     V42    10.0   .     S
V42     V19    10.0   1_456     S
V42     V36    10.0   1_455     S
V42     V21    10.0   1_455     S
V42     V40    10.0   1_556     S
V43     V10    10.0   1_545     S
V43     V17    10.0   1_545     S
V43     V16    10.0   1_545     S
V43     V45    10.0   1_554     S
V43     V44    10.0   .     S
V44     V11    10.0   1_545     S
V44     V18    10.0   1_545     S
V44     V17    10.0   1_545     S
V44     V45    10.0   .     S
V45     V12    10.0   1_545     S
V45     V16    10.0   1_546     S
V45     V18    10.0   1_545     S
V45     V43    10.0   1_556     S
V46     V48    10.0   1_554     S
V46     V47    10.0   .     S
V47     V48    10.0   .     S
V48     V13    10.0   1_556     S
V48     V46    10.0   1_556     S
