data_ecj
_audit_creation_date              2019-12-31
_audit_creation_method            'Pymatgen'
_symmetry_space_group_name_H-M    'P1'
_symmetry_Int_Tables_number       1
loop_
_symmetry_equiv_pos_as_xyz
  x,y,z
_cell_length_a                    36.6854
_cell_length_b                    36.6854
_cell_length_c                    30.0
_cell_angle_alpha                 90.0
_cell_angle_beta                 90.0
_cell_angle_gamma                 90.0
loop_
_atom_site_label
_atom_site_type_symbol
_atom_site_fract_x
_atom_site_fract_y
_atom_site_fract_z
V1     V     0.882   0.632   0.2917
V2     V     0.882   0.632   0.625
V3     V     0.882   0.632   0.9583
V4     V     0.118   0.632   0.125
V5     V     0.118   0.632   0.4583
V6     V     0.118   0.632   0.7917
V7     V     0.118   0.868   0.2917
V8     V     0.118   0.868   0.625
V9     V     0.118   0.868   0.9583
V10     V     0.882   0.868   0.125
V11     V     0.882   0.868   0.4583
V12     V     0.882   0.868   0.7917
V13     V     0.382   0.868   0.0417
V14     V     0.382   0.868   0.375
V15     V     0.382   0.868   0.7083
V16     V     0.618   0.868   0.2083
V17     V     0.618   0.868   0.5417
V18     V     0.618   0.868   0.875
V19     V     0.382   0.632   0.2083
V20     V     0.382   0.632   0.5417
V21     V     0.382   0.632   0.875
V22     V     0.618   0.632   0.0417
V23     V     0.618   0.632   0.375
V24     V     0.618   0.632   0.7083
V25     V     0.382   0.132   0.125
V26     V     0.382   0.132   0.4583
V27     V     0.382   0.132   0.7917
V28     V     0.618   0.132   0.2917
V29     V     0.618   0.132   0.625
V30     V     0.618   0.132   0.9583
V31     V     0.382   0.368   0.2917
V32     V     0.382   0.368   0.625
V33     V     0.382   0.368   0.9583
V34     V     0.618   0.368   0.125
V35     V     0.618   0.368   0.4583
V36     V     0.618   0.368   0.7917
V37     V     0.882   0.368   0.2083
V38     V     0.882   0.368   0.5417
V39     V     0.882   0.368   0.875
V40     V     0.882   0.132   0.0417
V41     V     0.882   0.132   0.375
V42     V     0.882   0.132   0.7083
V43     V     0.118   0.132   0.2083
V44     V     0.118   0.132   0.5417
V45     V     0.118   0.132   0.875
V46     V     0.118   0.368   0.0417
V47     V     0.118   0.368   0.375
V48     V     0.118   0.368   0.7083
loop_
_geom_bond_atom_site_label_1
_geom_bond_atom_site_label_2
_geom_bond_distance
_geom_bond_site_symmetry_2
_ccdc_geom_bond_type
V1     V5    10.0   1_655     S
V1     V3    10.0   1_554     S
V1     V2    10.0   .     S
V1     V4    10.0   1_655     S
V1     V11    10.0   .     S
V1     V10    10.0   .     S
V1     V37    10.0   .     S
V1     V23    10.0   .     S
V2     V6    10.0   1_655     S
V2     V3    10.0   .     S
V2     V5    10.0   1_655     S
V2     V12    10.0   .     S
V2     V11    10.0   .     S
V2     V38    10.0   .     S
V2     V24    10.0   .     S
V3     V4    10.0   1_656     S
V3     V1    10.0   1_556     S
V3     V6    10.0   1_655     S
V3     V10    10.0   1_556     S
V3     V12    10.0   .     S
V3     V39    10.0   .     S
V3     V22    10.0   1_556     S
V4     V3    10.0   1_454     S
V4     V1    10.0   1_455     S
V4     V5    10.0   .     S
V4     V6    10.0   1_554     S
V4     V7    10.0   .     S
V4     V9    10.0   1_554     S
V4     V46    10.0   .     S
V4     V19    10.0   .     S
V5     V1    10.0   1_455     S
V5     V2    10.0   1_455     S
V5     V6    10.0   .     S
V5     V8    10.0   .     S
V5     V7    10.0   .     S
V5     V47    10.0   .     S
V5     V20    10.0   .     S
V6     V2    10.0   1_455     S
V6     V3    10.0   1_455     S
V6     V4    10.0   1_556     S
V6     V9    10.0   .     S
V6     V8    10.0   .     S
V6     V48    10.0   .     S
V6     V21    10.0   .     S
V7     V9    10.0   1_554     S
V7     V8    10.0   .     S
V7     V11    10.0   1_455     S
V7     V10    10.0   1_455     S
V7     V14    10.0   .     S
V7     V43    10.0   1_565     S
V8     V9    10.0   .     S
V8     V12    10.0   1_455     S
V8     V11    10.0   1_455     S
V8     V15    10.0   .     S
V8     V44    10.0   1_565     S
V9     V7    10.0   1_556     S
V9     V4    10.0   1_556     S
V9     V10    10.0   1_456     S
V9     V12    10.0   1_455     S
V9     V13    10.0   1_556     S
V9     V45    10.0   1_565     S
V10     V9    10.0   1_654     S
V10     V11    10.0   .     S
V10     V12    10.0   1_554     S
V10     V3    10.0   1_554     S
V10     V7    10.0   1_655     S
V10     V40    10.0   1_565     S
V10     V16    10.0   .     S
V11     V7    10.0   1_655     S
V11     V12    10.0   .     S
V11     V8    10.0   1_655     S
V11     V41    10.0   1_565     S
V11     V17    10.0   .     S
V12     V8    10.0   1_655     S
V12     V10    10.0   1_556     S
V12     V9    10.0   1_655     S
V12     V42    10.0   1_565     S
V12     V18    10.0   .     S
V13     V19    10.0   .     S
V13     V14    10.0   .     S
V13     V15    10.0   1_554     S
V13     V18    10.0   1_554     S
V13     V16    10.0   .     S
V13     V21    10.0   1_554     S
V13     V9    10.0   1_554     S
V13     V25    10.0   1_565     S
V14     V20    10.0   .     S
V14     V15    10.0   .     S
V14     V16    10.0   .     S
V14     V17    10.0   .     S
V14     V19    10.0   .     S
V14     V26    10.0   1_565     S
V15     V21    10.0   .     S
V15     V13    10.0   1_556     S
V15     V17    10.0   .     S
V15     V18    10.0   .     S
V15     V20    10.0   .     S
V15     V27    10.0   1_565     S
V16     V18    10.0   1_554     S
V16     V17    10.0   .     S
V16     V23    10.0   .     S
V16     V22    10.0   .     S
V16     V28    10.0   1_565     S
V17     V18    10.0   .     S
V17     V24    10.0   .     S
V17     V23    10.0   .     S
V17     V29    10.0   1_565     S
V18     V13    10.0   1_556     S
V18     V16    10.0   1_556     S
V18     V22    10.0   1_556     S
V18     V24    10.0   .     S
V18     V30    10.0   1_565     S
V19     V23    10.0   .     S
V19     V21    10.0   1_554     S
V19     V20    10.0   .     S
V19     V22    10.0   .     S
V19     V31    10.0   .     S
V20     V24    10.0   .     S
V20     V21    10.0   .     S
V20     V23    10.0   .     S
V20     V32    10.0   .     S
V21     V13    10.0   1_556     S
V21     V22    10.0   1_556     S
V21     V19    10.0   1_556     S
V21     V24    10.0   .     S
V21     V33    10.0   .     S
V22     V18    10.0   1_554     S
V22     V21    10.0   1_554     S
V22     V23    10.0   .     S
V22     V24    10.0   1_554     S
V22     V3    10.0   1_554     S
V22     V34    10.0   .     S
V23     V24    10.0   .     S
V23     V35    10.0   .     S
V24     V22    10.0   1_556     S
V24     V36    10.0   .     S
V25     V33    10.0   1_554     S
V25     V26    10.0   .     S
V25     V27    10.0   1_554     S
V25     V28    10.0   .     S
V25     V30    10.0   1_554     S
V25     V31    10.0   .     S
V25     V43    10.0   .     S
V25     V13    10.0   1_545     S
V26     V31    10.0   .     S
V26     V27    10.0   .     S
V26     V29    10.0   .     S
V26     V28    10.0   .     S
V26     V32    10.0   .     S
V26     V44    10.0   .     S
V26     V14    10.0   1_545     S
V27     V32    10.0   .     S
V27     V25    10.0   1_556     S
V27     V30    10.0   .     S
V27     V29    10.0   .     S
V27     V33    10.0   .     S
V27     V45    10.0   .     S
V27     V15    10.0   1_545     S
V28     V30    10.0   1_554     S
V28     V29    10.0   .     S
V28     V34    10.0   .     S
V28     V35    10.0   .     S
V28     V16    10.0   1_545     S
V28     V41    10.0   .     S
V29     V30    10.0   .     S
V29     V35    10.0   .     S
V29     V36    10.0   .     S
V29     V17    10.0   1_545     S
V29     V42    10.0   .     S
V30     V28    10.0   1_556     S
V30     V25    10.0   1_556     S
V30     V36    10.0   .     S
V30     V34    10.0   1_556     S
V30     V18    10.0   1_545     S
V30     V40    10.0   1_556     S
V31     V33    10.0   1_554     S
V31     V32    10.0   .     S
V31     V34    10.0   .     S
V31     V35    10.0   .     S
V31     V47    10.0   .     S
V32     V33    10.0   .     S
V32     V35    10.0   .     S
V32     V36    10.0   .     S
V32     V48    10.0   .     S
V33     V25    10.0   1_556     S
V33     V31    10.0   1_556     S
V33     V36    10.0   .     S
V33     V34    10.0   1_556     S
V33     V46    10.0   1_556     S
V34     V35    10.0   .     S
V34     V36    10.0   1_554     S
V34     V30    10.0   1_554     S
V34     V33    10.0   1_554     S
V34     V37    10.0   .     S
V35     V36    10.0   .     S
V35     V38    10.0   .     S
V36     V34    10.0   1_556     S
V36     V39    10.0   .     S
V37     V46    10.0   1_655     S
V37     V39    10.0   1_554     S
V37     V38    10.0   .     S
V37     V47    10.0   1_655     S
V37     V40    10.0   .     S
V37     V41    10.0   .     S
V38     V47    10.0   1_655     S
V38     V39    10.0   .     S
V38     V48    10.0   1_655     S
V38     V41    10.0   .     S
V38     V42    10.0   .     S
V39     V48    10.0   1_655     S
V39     V37    10.0   1_556     S
V39     V46    10.0   1_656     S
V39     V42    10.0   .     S
V39     V40    10.0   1_556     S
V40     V43    10.0   1_655     S
V40     V41    10.0   .     S
V40     V42    10.0   1_554     S
V40     V45    10.0   1_654     S
V40     V39    10.0   1_554     S
V40     V10    10.0   1_545     S
V40     V30    10.0   1_554     S
V41     V44    10.0   1_655     S
V41     V42    10.0   .     S
V41     V43    10.0   1_655     S
V41     V11    10.0   1_545     S
V42     V45    10.0   1_655     S
V42     V40    10.0   1_556     S
V42     V44    10.0   1_655     S
V42     V12    10.0   1_545     S
V43     V40    10.0   1_455     S
V43     V41    10.0   1_455     S
V43     V47    10.0   .     S
V43     V45    10.0   1_554     S
V43     V44    10.0   .     S
V43     V46    10.0   .     S
V43     V7    10.0   1_545     S
V44     V41    10.0   1_455     S
V44     V42    10.0   1_455     S
V44     V48    10.0   .     S
V44     V45    10.0   .     S
V44     V47    10.0   .     S
V44     V8    10.0   1_545     S
V45     V42    10.0   1_455     S
V45     V40    10.0   1_456     S
V45     V46    10.0   1_556     S
V45     V43    10.0   1_556     S
V45     V48    10.0   .     S
V45     V9    10.0   1_545     S
V46     V37    10.0   1_455     S
V46     V39    10.0   1_454     S
V46     V45    10.0   1_554     S
V46     V47    10.0   .     S
V46     V48    10.0   1_554     S
V46     V33    10.0   1_554     S
V47     V38    10.0   1_455     S
V47     V37    10.0   1_455     S
V47     V48    10.0   .     S
V48     V39    10.0   1_455     S
V48     V38    10.0   1_455     S
V48     V46    10.0   1_556     S
