data_ecl
_audit_creation_date              2019-12-31
_audit_creation_method            'Pymatgen'
_symmetry_space_group_name_H-M    'P1'
_symmetry_Int_Tables_number       1
loop_
_symmetry_equiv_pos_as_xyz
  x,y,z
_cell_length_a                    26.3894
_cell_length_b                    26.3894
_cell_length_c                    30.0003
_cell_angle_alpha                 90.0
_cell_angle_beta                 90.0
_cell_angle_gamma                 90.0
loop_
_atom_site_label
_atom_site_type_symbol
_atom_site_fract_x
_atom_site_fract_y
_atom_site_fract_z
V1     V     0.732   0.0   0.0
V2     V     0.732   0.0   0.3333
V3     V     0.732   0.0   0.6667
V4     V     0.268   0.0   0.0
V5     V     0.268   0.0   0.3333
V6     V     0.268   0.0   0.6667
V7     V     0.5   0.232   0.1667
V8     V     0.5   0.232   0.5
V9     V     0.5   0.232   0.8333
V10     V     0.5   0.768   0.1667
V11     V     0.5   0.768   0.5
V12     V     0.5   0.768   0.8333
V13     V     0.0   0.732   0.0
V14     V     0.0   0.732   0.3333
V15     V     0.0   0.732   0.6667
V16     V     0.0   0.268   0.0
V17     V     0.0   0.268   0.3333
V18     V     0.0   0.268   0.6667
V19     V     0.232   0.5   0.1667
V20     V     0.232   0.5   0.5
V21     V     0.232   0.5   0.8333
V22     V     0.768   0.5   0.1667
V23     V     0.768   0.5   0.5
V24     V     0.768   0.5   0.8333
loop_
_geom_bond_atom_site_label_1
_geom_bond_atom_site_label_2
_geom_bond_distance
_geom_bond_site_symmetry_2
_ccdc_geom_bond_type
V1     V12    10.0   1_544     S
V1     V2    10.0   .     S
V1     V3    10.0   1_554     S
V1     V10    10.0   1_545     S
V1     V7    10.0   .     S
V1     V9    10.0   1_554     S
V1     V16    10.0   1_655     S
V1     V13    10.0   1_645     S
V2     V10    10.0   1_545     S
V2     V3    10.0   .     S
V2     V11    10.0   1_545     S
V2     V8    10.0   .     S
V2     V7    10.0   .     S
V2     V17    10.0   1_655     S
V2     V14    10.0   1_645     S
V3     V11    10.0   1_545     S
V3     V1    10.0   1_556     S
V3     V12    10.0   1_545     S
V3     V9    10.0   .     S
V3     V8    10.0   .     S
V3     V18    10.0   1_655     S
V3     V15    10.0   1_645     S
V4     V10    10.0   1_545     S
V4     V5    10.0   .     S
V4     V6    10.0   1_554     S
V4     V12    10.0   1_544     S
V4     V9    10.0   1_554     S
V4     V7    10.0   .     S
V4     V13    10.0   1_545     S
V4     V16    10.0   .     S
V5     V11    10.0   1_545     S
V5     V6    10.0   .     S
V5     V10    10.0   1_545     S
V5     V7    10.0   .     S
V5     V8    10.0   .     S
V5     V14    10.0   1_545     S
V5     V17    10.0   .     S
V6     V12    10.0   1_545     S
V6     V4    10.0   1_556     S
V6     V11    10.0   1_545     S
V6     V8    10.0   .     S
V6     V9    10.0   .     S
V6     V15    10.0   1_545     S
V6     V18    10.0   .     S
V7     V9    10.0   1_554     S
V7     V8    10.0   .     S
V7     V19    10.0   .     S
V7     V22    10.0   .     S
V8     V9    10.0   .     S
V8     V20    10.0   .     S
V8     V23    10.0   .     S
V9     V1    10.0   1_556     S
V9     V4    10.0   1_556     S
V9     V7    10.0   1_556     S
V9     V21    10.0   .     S
V9     V24    10.0   .     S
V10     V2    10.0   1_565     S
V10     V1    10.0   1_565     S
V10     V4    10.0   1_565     S
V10     V5    10.0   1_565     S
V10     V12    10.0   1_554     S
V10     V11    10.0   .     S
V10     V19    10.0   .     S
V10     V22    10.0   .     S
V11     V3    10.0   1_565     S
V11     V2    10.0   1_565     S
V11     V5    10.0   1_565     S
V11     V6    10.0   1_565     S
V11     V12    10.0   .     S
V11     V20    10.0   .     S
V11     V23    10.0   .     S
V12     V1    10.0   1_566     S
V12     V3    10.0   1_565     S
V12     V6    10.0   1_565     S
V12     V4    10.0   1_566     S
V12     V10    10.0   1_556     S
V12     V21    10.0   .     S
V12     V24    10.0   .     S
V13     V22    10.0   1_455     S
V13     V14    10.0   .     S
V13     V15    10.0   1_554     S
V13     V24    10.0   1_454     S
V13     V21    10.0   1_554     S
V13     V19    10.0   .     S
V13     V4    10.0   1_565     S
V13     V1    10.0   1_465     S
V14     V23    10.0   1_455     S
V14     V15    10.0   .     S
V14     V22    10.0   1_455     S
V14     V19    10.0   .     S
V14     V20    10.0   .     S
V14     V5    10.0   1_565     S
V14     V2    10.0   1_465     S
V15     V24    10.0   1_455     S
V15     V13    10.0   1_556     S
V15     V23    10.0   1_455     S
V15     V20    10.0   .     S
V15     V21    10.0   .     S
V15     V6    10.0   1_565     S
V15     V3    10.0   1_465     S
V16     V1    10.0   1_455     S
V16     V24    10.0   1_454     S
V16     V17    10.0   .     S
V16     V18    10.0   1_554     S
V16     V22    10.0   1_455     S
V16     V19    10.0   .     S
V16     V21    10.0   1_554     S
V17     V2    10.0   1_455     S
V17     V22    10.0   1_455     S
V17     V18    10.0   .     S
V17     V23    10.0   1_455     S
V17     V20    10.0   .     S
V17     V19    10.0   .     S
V18     V3    10.0   1_455     S
V18     V23    10.0   1_455     S
V18     V16    10.0   1_556     S
V18     V24    10.0   1_455     S
V18     V21    10.0   .     S
V18     V20    10.0   .     S
V19     V21    10.0   1_554     S
V19     V20    10.0   .     S
V20     V21    10.0   .     S
V21     V13    10.0   1_556     S
V21     V16    10.0   1_556     S
V21     V19    10.0   1_556     S
V22     V13    10.0   1_655     S
V22     V14    10.0   1_655     S
V22     V17    10.0   1_655     S
V22     V16    10.0   1_655     S
V22     V24    10.0   1_554     S
V22     V23    10.0   .     S
V23     V14    10.0   1_655     S
V23     V15    10.0   1_655     S
V23     V18    10.0   1_655     S
V23     V17    10.0   1_655     S
V23     V24    10.0   .     S
V24     V15    10.0   1_655     S
V24     V13    10.0   1_656     S
V24     V16    10.0   1_656     S
V24     V18    10.0   1_655     S
V24     V22    10.0   1_556     S
