data_eco
_audit_creation_date              2019-12-31
_audit_creation_method            'Pymatgen'
_symmetry_space_group_name_H-M    'P1'
_symmetry_Int_Tables_number       1
loop_
_symmetry_equiv_pos_as_xyz
  x,y,z
_cell_length_a                    43.7753
_cell_length_b                    43.7753
_cell_length_c                    29.9997
_cell_angle_alpha                 90.0
_cell_angle_beta                 90.0
_cell_angle_gamma                 120.0
loop_
_atom_site_label
_atom_site_type_symbol
_atom_site_fract_x
_atom_site_fract_y
_atom_site_fract_z
V1     V     0.058   0.8094   0.0278
V2     V     0.058   0.8094   0.3611
V3     V     0.058   0.8094   0.6944
V4     V     0.2753   0.8572   0.1944
V5     V     0.2753   0.8572   0.5278
V6     V     0.2753   0.8572   0.8611
V7     V     0.8094   0.7514   0.3056
V8     V     0.8094   0.7514   0.6389
V9     V     0.8094   0.7514   0.9722
V10     V     0.8572   0.5819   0.1389
V11     V     0.8572   0.5819   0.4722
V12     V     0.8572   0.5819   0.8056
V13     V     0.6087   0.5239   0.0833
V14     V     0.6087   0.5239   0.4167
V15     V     0.6087   0.5239   0.75
V16     V     0.3913   0.4761   0.25
V17     V     0.3913   0.4761   0.5833
V18     V     0.3913   0.4761   0.9167
V19     V     0.7514   0.942   0.0278
V20     V     0.7514   0.942   0.3611
V21     V     0.7514   0.942   0.6944
V22     V     0.5819   0.7247   0.1944
V23     V     0.5819   0.7247   0.5278
V24     V     0.5819   0.7247   0.8611
V25     V     0.0848   0.6087   0.25
V26     V     0.0848   0.6087   0.5833
V27     V     0.0848   0.6087   0.9167
V28     V     0.9152   0.3913   0.0833
V29     V     0.9152   0.3913   0.4167
V30     V     0.9152   0.3913   0.75
V31     V     0.1906   0.2486   0.0278
V32     V     0.1906   0.2486   0.3611
V33     V     0.1906   0.2486   0.6944
V34     V     0.1428   0.4181   0.1944
V35     V     0.1428   0.4181   0.5278
V36     V     0.1428   0.4181   0.8611
V37     V     0.942   0.1906   0.3056
V38     V     0.942   0.1906   0.6389
V39     V     0.942   0.1906   0.9722
V40     V     0.7247   0.1428   0.1389
V41     V     0.7247   0.1428   0.4722
V42     V     0.7247   0.1428   0.8056
V43     V     0.5239   0.9152   0.25
V44     V     0.5239   0.9152   0.5833
V45     V     0.5239   0.9152   0.9167
V46     V     0.4761   0.0848   0.0833
V47     V     0.4761   0.0848   0.4167
V48     V     0.4761   0.0848   0.75
V49     V     0.2486   0.058   0.3056
V50     V     0.2486   0.058   0.6389
V51     V     0.2486   0.058   0.9722
V52     V     0.4181   0.2753   0.1389
V53     V     0.4181   0.2753   0.4722
V54     V     0.4181   0.2753   0.8056
loop_
_geom_bond_atom_site_label_1
_geom_bond_atom_site_label_2
_geom_bond_distance
_geom_bond_site_symmetry_2
_ccdc_geom_bond_type
V1     V51    10.0   1_564     S
V1     V6    10.0   1_554     S
V1     V4    10.0   .     S
V1     V2    10.0   .     S
V1     V3    10.0   1_554     S
V1     V27    10.0   1_554     S
V1     V10    10.0   1_455     S
V1     V9    10.0   1_454     S
V2     V49    10.0   1_565     S
V2     V4    10.0   .     S
V2     V5    10.0   .     S
V2     V3    10.0   .     S
V2     V25    10.0   .     S
V2     V11    10.0   1_455     S
V2     V7    10.0   1_455     S
V3     V50    10.0   1_565     S
V3     V5    10.0   .     S
V3     V6    10.0   .     S
V3     V1    10.0   1_556     S
V3     V26    10.0   .     S
V3     V12    10.0   1_455     S
V3     V8    10.0   1_455     S
V4     V49    10.0   1_565     S
V4     V6    10.0   1_554     S
V4     V5    10.0   .     S
V4     V25    10.0   .     S
V4     V46    10.0   1_565     S
V4     V43    10.0   .     S
V5     V50    10.0   1_565     S
V5     V6    10.0   .     S
V5     V26    10.0   .     S
V5     V47    10.0   1_565     S
V5     V44    10.0   .     S
V6     V51    10.0   1_565     S
V6     V1    10.0   1_556     S
V6     V4    10.0   1_556     S
V6     V27    10.0   .     S
V6     V48    10.0   1_565     S
V6     V45    10.0   .     S
V7     V14    10.0   .     S
V7     V11    10.0   .     S
V7     V10    10.0   .     S
V7     V9    10.0   1_554     S
V7     V8    10.0   .     S
V7     V2    10.0   1_655     S
V7     V22    10.0   .     S
V7     V20    10.0   .     S
V8     V15    10.0   .     S
V8     V12    10.0   .     S
V8     V11    10.0   .     S
V8     V9    10.0   .     S
V8     V3    10.0   1_655     S
V8     V23    10.0   .     S
V8     V21    10.0   .     S
V9     V13    10.0   1_556     S
V9     V10    10.0   1_556     S
V9     V12    10.0   .     S
V9     V7    10.0   1_556     S
V9     V1    10.0   1_656     S
V9     V24    10.0   .     S
V9     V19    10.0   1_556     S
V10     V13    10.0   .     S
V10     V9    10.0   1_554     S
V10     V11    10.0   .     S
V10     V12    10.0   1_554     S
V10     V1    10.0   1_655     S
V10     V25    10.0   1_655     S
V10     V28    10.0   .     S
V11     V14    10.0   .     S
V11     V12    10.0   .     S
V11     V2    10.0   1_655     S
V11     V26    10.0   1_655     S
V11     V29    10.0   .     S
V12     V15    10.0   .     S
V12     V10    10.0   1_556     S
V12     V3    10.0   1_655     S
V12     V27    10.0   1_655     S
V12     V30    10.0   .     S
V13     V9    10.0   1_554     S
V13     V22    10.0   .     S
V13     V16    10.0   .     S
V13     V18    10.0   1_554     S
V13     V14    10.0   .     S
V13     V15    10.0   1_554     S
V13     V52    10.0   .     S
V14     V23    10.0   .     S
V14     V17    10.0   .     S
V14     V16    10.0   .     S
V14     V15    10.0   .     S
V14     V53    10.0   .     S
V15     V24    10.0   .     S
V15     V18    10.0   .     S
V15     V17    10.0   .     S
V15     V13    10.0   1_556     S
V15     V54    10.0   .     S
V16     V22    10.0   .     S
V16     V18    10.0   1_554     S
V16     V17    10.0   .     S
V16     V52    10.0   .     S
V16     V32    10.0   .     S
V16     V34    10.0   .     S
V17     V23    10.0   .     S
V17     V18    10.0   .     S
V17     V53    10.0   .     S
V17     V33    10.0   .     S
V17     V35    10.0   .     S
V18     V24    10.0   .     S
V18     V13    10.0   1_556     S
V18     V16    10.0   1_556     S
V18     V54    10.0   .     S
V18     V31    10.0   1_556     S
V18     V36    10.0   .     S
V19     V45    10.0   1_554     S
V19     V24    10.0   1_554     S
V19     V22    10.0   .     S
V19     V20    10.0   .     S
V19     V21    10.0   1_554     S
V19     V9    10.0   1_554     S
V19     V40    10.0   1_565     S
V19     V39    10.0   1_564     S
V20     V43    10.0   .     S
V20     V22    10.0   .     S
V20     V23    10.0   .     S
V20     V21    10.0   .     S
V20     V41    10.0   1_565     S
V20     V37    10.0   1_565     S
V21     V44    10.0   .     S
V21     V23    10.0   .     S
V21     V24    10.0   .     S
V21     V19    10.0   1_556     S
V21     V42    10.0   1_565     S
V21     V38    10.0   1_565     S
V22     V43    10.0   .     S
V22     V24    10.0   1_554     S
V22     V23    10.0   .     S
V23     V44    10.0   .     S
V23     V24    10.0   .     S
V24     V45    10.0   .     S
V24     V19    10.0   1_556     S
V24     V22    10.0   1_556     S
V25     V10    10.0   1_455     S
V25     V28    10.0   1_455     S
V25     V29    10.0   1_455     S
V25     V27    10.0   1_554     S
V25     V26    10.0   .     S
V25     V34    10.0   .     S
V26     V11    10.0   1_455     S
V26     V29    10.0   1_455     S
V26     V30    10.0   1_455     S
V26     V27    10.0   .     S
V26     V35    10.0   .     S
V27     V1    10.0   1_556     S
V27     V12    10.0   1_455     S
V27     V30    10.0   1_455     S
V27     V28    10.0   1_456     S
V27     V25    10.0   1_556     S
V27     V36    10.0   .     S
V28     V25    10.0   1_655     S
V28     V27    10.0   1_654     S
V28     V29    10.0   .     S
V28     V30    10.0   1_554     S
V28     V34    10.0   1_655     S
V28     V39    10.0   1_554     S
V28     V40    10.0   .     S
V29     V26    10.0   1_655     S
V29     V25    10.0   1_655     S
V29     V30    10.0   .     S
V29     V35    10.0   1_655     S
V29     V37    10.0   .     S
V29     V41    10.0   .     S
V30     V27    10.0   1_655     S
V30     V26    10.0   1_655     S
V30     V28    10.0   1_556     S
V30     V36    10.0   1_655     S
V30     V38    10.0   .     S
V30     V42    10.0   .     S
V31     V39    10.0   1_454     S
V31     V36    10.0   1_554     S
V31     V34    10.0   .     S
V31     V32    10.0   .     S
V31     V33    10.0   1_554     S
V31     V18    10.0   1_554     S
V31     V52    10.0   .     S
V31     V51    10.0   1_554     S
V32     V37    10.0   1_455     S
V32     V34    10.0   .     S
V32     V35    10.0   .     S
V32     V33    10.0   .     S
V32     V53    10.0   .     S
V32     V49    10.0   .     S
V33     V38    10.0   1_455     S
V33     V35    10.0   .     S
V33     V36    10.0   .     S
V33     V31    10.0   1_556     S
V33     V54    10.0   .     S
V33     V50    10.0   .     S
V34     V28    10.0   1_455     S
V34     V37    10.0   1_455     S
V34     V36    10.0   1_554     S
V34     V35    10.0   .     S
V35     V29    10.0   1_455     S
V35     V38    10.0   1_455     S
V35     V36    10.0   .     S
V36     V30    10.0   1_455     S
V36     V39    10.0   1_455     S
V36     V31    10.0   1_556     S
V36     V34    10.0   1_556     S
V37     V34    10.0   1_655     S
V37     V32    10.0   1_655     S
V37     V41    10.0   .     S
V37     V40    10.0   .     S
V37     V39    10.0   1_554     S
V37     V38    10.0   .     S
V37     V20    10.0   1_545     S
V38     V35    10.0   1_655     S
V38     V33    10.0   1_655     S
V38     V42    10.0   .     S
V38     V41    10.0   .     S
V38     V39    10.0   .     S
V38     V21    10.0   1_545     S
V39     V36    10.0   1_655     S
V39     V31    10.0   1_656     S
V39     V28    10.0   1_556     S
V39     V40    10.0   1_556     S
V39     V42    10.0   .     S
V39     V37    10.0   1_556     S
V39     V19    10.0   1_546     S
V40     V39    10.0   1_554     S
V40     V41    10.0   .     S
V40     V42    10.0   1_554     S
V40     V19    10.0   1_545     S
V40     V43    10.0   1_545     S
V40     V46    10.0   .     S
V41     V42    10.0   .     S
V41     V20    10.0   1_545     S
V41     V44    10.0   1_545     S
V41     V47    10.0   .     S
V42     V40    10.0   1_556     S
V42     V21    10.0   1_545     S
V42     V45    10.0   1_545     S
V42     V48    10.0   .     S
V43     V46    10.0   1_565     S
V43     V47    10.0   1_565     S
V43     V45    10.0   1_554     S
V43     V44    10.0   .     S
V43     V40    10.0   1_565     S
V44     V47    10.0   1_565     S
V44     V48    10.0   1_565     S
V44     V45    10.0   .     S
V44     V41    10.0   1_565     S
V45     V19    10.0   1_556     S
V45     V48    10.0   1_565     S
V45     V46    10.0   1_566     S
V45     V43    10.0   1_556     S
V45     V42    10.0   1_565     S
V46     V4    10.0   1_545     S
V46     V43    10.0   1_545     S
V46     V45    10.0   1_544     S
V46     V47    10.0   .     S
V46     V48    10.0   1_554     S
V46     V51    10.0   1_554     S
V46     V52    10.0   .     S
V47     V5    10.0   1_545     S
V47     V44    10.0   1_545     S
V47     V43    10.0   1_545     S
V47     V48    10.0   .     S
V47     V49    10.0   .     S
V47     V53    10.0   .     S
V48     V6    10.0   1_545     S
V48     V45    10.0   1_545     S
V48     V44    10.0   1_545     S
V48     V46    10.0   1_556     S
V48     V50    10.0   .     S
V48     V54    10.0   .     S
V49     V4    10.0   1_545     S
V49     V2    10.0   1_545     S
V49     V53    10.0   .     S
V49     V52    10.0   .     S
V49     V51    10.0   1_554     S
V49     V50    10.0   .     S
V50     V5    10.0   1_545     S
V50     V3    10.0   1_545     S
V50     V54    10.0   .     S
V50     V53    10.0   .     S
V50     V51    10.0   .     S
V51     V6    10.0   1_545     S
V51     V1    10.0   1_546     S
V51     V46    10.0   1_556     S
V51     V52    10.0   1_556     S
V51     V54    10.0   .     S
V51     V49    10.0   1_556     S
V51     V31    10.0   1_556     S
V52     V51    10.0   1_554     S
V52     V53    10.0   .     S
V52     V54    10.0   1_554     S
V53     V54    10.0   .     S
V54     V52    10.0   1_556     S
