data_ecq
_audit_creation_date              2019-12-31
_audit_creation_method            'Pymatgen'
_symmetry_space_group_name_H-M    'P1'
_symmetry_Int_Tables_number       1
loop_
_symmetry_equiv_pos_as_xyz
  x,y,z
_cell_length_a                    40.9809
_cell_length_b                    40.9809
_cell_length_c                    29.9997
_cell_angle_alpha                 90.0
_cell_angle_beta                 90.0
_cell_angle_gamma                 120.0
loop_
_atom_site_label
_atom_site_type_symbol
_atom_site_fract_x
_atom_site_fract_y
_atom_site_fract_z
V1     V     0.878   0.3333   0.0
V2     V     0.878   0.3333   0.3333
V3     V     0.878   0.3333   0.6667
V4     V     0.6667   0.122   0.1667
V5     V     0.6667   0.122   0.5
V6     V     0.6667   0.122   0.8333
V7     V     0.5447   0.878   0.0
V8     V     0.5447   0.878   0.3333
V9     V     0.5447   0.878   0.6667
V10     V     0.5447   0.6667   0.1667
V11     V     0.5447   0.6667   0.5
V12     V     0.5447   0.6667   0.8333
V13     V     0.3333   0.4553   0.0
V14     V     0.3333   0.4553   0.3333
V15     V     0.3333   0.4553   0.6667
V16     V     0.122   0.4553   0.1667
V17     V     0.122   0.4553   0.5
V18     V     0.122   0.4553   0.8333
V19     V     0.6667   0.5447   0.0
V20     V     0.6667   0.5447   0.3333
V21     V     0.6667   0.5447   0.6667
V22     V     0.4553   0.122   0.0
V23     V     0.4553   0.122   0.3333
V24     V     0.4553   0.122   0.6667
V25     V     0.4553   0.3333   0.1667
V26     V     0.4553   0.3333   0.5
V27     V     0.4553   0.3333   0.8333
V28     V     0.878   0.5447   0.1667
V29     V     0.878   0.5447   0.5
V30     V     0.878   0.5447   0.8333
V31     V     0.122   0.6667   0.0
V32     V     0.122   0.6667   0.3333
V33     V     0.122   0.6667   0.6667
V34     V     0.3333   0.878   0.1667
V35     V     0.3333   0.878   0.5
V36     V     0.3333   0.878   0.8333
loop_
_geom_bond_atom_site_label_1
_geom_bond_atom_site_label_2
_geom_bond_distance
_geom_bond_site_symmetry_2
_ccdc_geom_bond_type
V1     V28    10.0   .     S
V1     V30    10.0   1_554     S
V1     V2    10.0   .     S
V1     V3    10.0   1_554     S
V1     V4    10.0   .     S
V1     V6    10.0   1_554     S
V1     V16    10.0   1_655     S
V1     V18    10.0   1_654     S
V2     V29    10.0   .     S
V2     V28    10.0   .     S
V2     V3    10.0   .     S
V2     V5    10.0   .     S
V2     V4    10.0   .     S
V2     V17    10.0   1_655     S
V2     V16    10.0   1_655     S
V3     V30    10.0   .     S
V3     V29    10.0   .     S
V3     V1    10.0   1_556     S
V3     V6    10.0   .     S
V3     V5    10.0   .     S
V3     V18    10.0   1_655     S
V3     V17    10.0   1_655     S
V4     V6    10.0   1_554     S
V4     V5    10.0   .     S
V4     V7    10.0   1_545     S
V4     V8    10.0   1_545     S
V4     V22    10.0   .     S
V4     V23    10.0   .     S
V5     V6    10.0   .     S
V5     V8    10.0   1_545     S
V5     V9    10.0   1_545     S
V5     V23    10.0   .     S
V5     V24    10.0   .     S
V6     V4    10.0   1_556     S
V6     V1    10.0   1_556     S
V6     V9    10.0   1_545     S
V6     V7    10.0   1_546     S
V6     V24    10.0   .     S
V6     V22    10.0   1_556     S
V7     V34    10.0   .     S
V7     V36    10.0   1_554     S
V7     V8    10.0   .     S
V7     V9    10.0   1_554     S
V7     V10    10.0   .     S
V7     V12    10.0   1_554     S
V7     V4    10.0   1_565     S
V7     V6    10.0   1_564     S
V8     V35    10.0   .     S
V8     V34    10.0   .     S
V8     V9    10.0   .     S
V8     V11    10.0   .     S
V8     V10    10.0   .     S
V8     V5    10.0   1_565     S
V8     V4    10.0   1_565     S
V9     V36    10.0   .     S
V9     V35    10.0   .     S
V9     V7    10.0   1_556     S
V9     V12    10.0   .     S
V9     V11    10.0   .     S
V9     V6    10.0   1_565     S
V9     V5    10.0   1_565     S
V10     V19    10.0   .     S
V10     V20    10.0   .     S
V10     V12    10.0   1_554     S
V10     V11    10.0   .     S
V10     V14    10.0   .     S
V10     V13    10.0   .     S
V11     V20    10.0   .     S
V11     V21    10.0   .     S
V11     V12    10.0   .     S
V11     V15    10.0   .     S
V11     V14    10.0   .     S
V12     V21    10.0   .     S
V12     V19    10.0   1_556     S
V12     V10    10.0   1_556     S
V12     V7    10.0   1_556     S
V12     V13    10.0   1_556     S
V12     V15    10.0   .     S
V13     V12    10.0   1_554     S
V13     V16    10.0   .     S
V13     V14    10.0   .     S
V13     V15    10.0   1_554     S
V13     V18    10.0   1_554     S
V13     V25    10.0   .     S
V13     V27    10.0   1_554     S
V14     V17    10.0   .     S
V14     V15    10.0   .     S
V14     V16    10.0   .     S
V14     V26    10.0   .     S
V14     V25    10.0   .     S
V15     V18    10.0   .     S
V15     V13    10.0   1_556     S
V15     V17    10.0   .     S
V15     V27    10.0   .     S
V15     V26    10.0   .     S
V16     V1    10.0   1_455     S
V16     V2    10.0   1_455     S
V16     V18    10.0   1_554     S
V16     V17    10.0   .     S
V16     V31    10.0   .     S
V16     V32    10.0   .     S
V17     V2    10.0   1_455     S
V17     V3    10.0   1_455     S
V17     V18    10.0   .     S
V17     V32    10.0   .     S
V17     V33    10.0   .     S
V18     V3    10.0   1_455     S
V18     V1    10.0   1_456     S
V18     V13    10.0   1_556     S
V18     V16    10.0   1_556     S
V18     V33    10.0   .     S
V18     V31    10.0   1_556     S
V19     V12    10.0   1_554     S
V19     V27    10.0   1_554     S
V19     V25    10.0   .     S
V19     V20    10.0   .     S
V19     V21    10.0   1_554     S
V19     V28    10.0   .     S
V19     V30    10.0   1_554     S
V20     V25    10.0   .     S
V20     V26    10.0   .     S
V20     V21    10.0   .     S
V20     V29    10.0   .     S
V20     V28    10.0   .     S
V21     V26    10.0   .     S
V21     V27    10.0   .     S
V21     V19    10.0   1_556     S
V21     V30    10.0   .     S
V21     V29    10.0   .     S
V22     V25    10.0   .     S
V22     V23    10.0   .     S
V22     V24    10.0   1_554     S
V22     V27    10.0   1_554     S
V22     V6    10.0   1_554     S
V22     V34    10.0   1_545     S
V22     V36    10.0   1_544     S
V23     V26    10.0   .     S
V23     V24    10.0   .     S
V23     V25    10.0   .     S
V23     V35    10.0   1_545     S
V23     V34    10.0   1_545     S
V24     V27    10.0   .     S
V24     V22    10.0   1_556     S
V24     V26    10.0   .     S
V24     V36    10.0   1_545     S
V24     V35    10.0   1_545     S
V25     V27    10.0   1_554     S
V25     V26    10.0   .     S
V26     V27    10.0   .     S
V27     V13    10.0   1_556     S
V27     V19    10.0   1_556     S
V27     V25    10.0   1_556     S
V27     V22    10.0   1_556     S
V28     V31    10.0   1_655     S
V28     V32    10.0   1_655     S
V28     V30    10.0   1_554     S
V28     V29    10.0   .     S
V29     V32    10.0   1_655     S
V29     V33    10.0   1_655     S
V29     V30    10.0   .     S
V30     V1    10.0   1_556     S
V30     V33    10.0   1_655     S
V30     V31    10.0   1_656     S
V30     V19    10.0   1_556     S
V30     V28    10.0   1_556     S
V31     V28    10.0   1_455     S
V31     V30    10.0   1_454     S
V31     V34    10.0   .     S
V31     V18    10.0   1_554     S
V31     V32    10.0   .     S
V31     V33    10.0   1_554     S
V31     V36    10.0   1_554     S
V32     V29    10.0   1_455     S
V32     V28    10.0   1_455     S
V32     V35    10.0   .     S
V32     V33    10.0   .     S
V32     V34    10.0   .     S
V33     V30    10.0   1_455     S
V33     V29    10.0   1_455     S
V33     V36    10.0   .     S
V33     V31    10.0   1_556     S
V33     V35    10.0   .     S
V34     V36    10.0   1_554     S
V34     V35    10.0   .     S
V34     V22    10.0   1_565     S
V34     V23    10.0   1_565     S
V35     V36    10.0   .     S
V35     V23    10.0   1_565     S
V35     V24    10.0   1_565     S
V36     V7    10.0   1_556     S
V36     V31    10.0   1_556     S
V36     V34    10.0   1_556     S
V36     V24    10.0   1_565     S
V36     V22    10.0   1_566     S
