data_ecr
_audit_creation_date              2019-12-31
_audit_creation_method            'Pymatgen'
_symmetry_space_group_name_H-M    'P1'
_symmetry_Int_Tables_number       1
loop_
_symmetry_equiv_pos_as_xyz
  x,y,z
_cell_length_a                    33.723
_cell_length_b                    33.723
_cell_length_c                    21.8614
_cell_angle_alpha                 90.0
_cell_angle_beta                 90.0
_cell_angle_gamma                 120.0
loop_
_atom_site_label
_atom_site_type_symbol
_atom_site_fract_x
_atom_site_fract_y
_atom_site_fract_z
V1     V     0.2839   0.3333   0.719
V2     V     0.2839   0.8333   0.719
V3     V     0.7839   0.3333   0.719
V4     V     0.7839   0.8333   0.719
V5     V     0.4506   0.1667   0.6144
V6     V     0.4506   0.6667   0.6144
V7     V     0.9506   0.1667   0.6144
V8     V     0.9506   0.6667   0.6144
V9     V     0.3333   0.2839   0.281
V10     V     0.3333   0.7839   0.281
V11     V     0.8333   0.2839   0.281
V12     V     0.8333   0.7839   0.281
V13     V     0.2161   0.0494   0.9477
V14     V     0.2161   0.5494   0.9477
V15     V     0.7161   0.0494   0.9477
V16     V     0.7161   0.5494   0.9477
V17     V     0.0494   0.2161   0.0523
V18     V     0.0494   0.7161   0.0523
V19     V     0.5494   0.2161   0.0523
V20     V     0.5494   0.7161   0.0523
V21     V     0.1667   0.4506   0.3856
V22     V     0.1667   0.9506   0.3856
V23     V     0.6667   0.4506   0.3856
V24     V     0.6667   0.9506   0.3856
loop_
_geom_bond_atom_site_label_1
_geom_bond_atom_site_label_2
_geom_bond_distance
_geom_bond_site_symmetry_2
_ccdc_geom_bond_type
V1     V21    10.0   .     S
V1     V7    10.0   1_455     S
V1     V17    10.0   1_556     S
V1     V5    10.0   .     S
V1     V9    10.0   .     S
V1     V14    10.0   .     S
V1     V13    10.0   .     S
V1     V6    10.0   .     S
V2     V22    10.0   .     S
V2     V8    10.0   1_455     S
V2     V18    10.0   1_556     S
V2     V6    10.0   .     S
V2     V10    10.0   .     S
V2     V13    10.0   1_565     S
V2     V14    10.0   .     S
V2     V5    10.0   1_565     S
V3     V23    10.0   .     S
V3     V5    10.0   .     S
V3     V19    10.0   1_556     S
V3     V7    10.0   .     S
V3     V11    10.0   .     S
V3     V16    10.0   .     S
V3     V15    10.0   .     S
V3     V8    10.0   .     S
V4     V24    10.0   .     S
V4     V6    10.0   .     S
V4     V20    10.0   1_556     S
V4     V8    10.0   .     S
V4     V12    10.0   .     S
V4     V15    10.0   1_565     S
V4     V16    10.0   .     S
V4     V7    10.0   1_565     S
V5     V13    10.0   .     S
V5     V19    10.0   1_556     S
V5     V9    10.0   .     S
V5     V23    10.0   .     S
V5     V22    10.0   1_545     S
V5     V2    10.0   1_545     S
V6     V14    10.0   .     S
V6     V20    10.0   1_556     S
V6     V10    10.0   .     S
V6     V24    10.0   .     S
V6     V21    10.0   .     S
V7     V1    10.0   1_655     S
V7     V15    10.0   .     S
V7     V17    10.0   1_656     S
V7     V11    10.0   .     S
V7     V21    10.0   1_655     S
V7     V24    10.0   1_545     S
V7     V4    10.0   1_545     S
V8     V2    10.0   1_655     S
V8     V16    10.0   .     S
V8     V18    10.0   1_656     S
V8     V12    10.0   .     S
V8     V22    10.0   1_655     S
V8     V23    10.0   .     S
V9     V21    10.0   .     S
V9     V17    10.0   .     S
V9     V22    10.0   1_545     S
V9     V13    10.0   1_554     S
V9     V19    10.0   .     S
V9     V23    10.0   .     S
V10     V22    10.0   .     S
V10     V18    10.0   .     S
V10     V21    10.0   .     S
V10     V14    10.0   1_554     S
V10     V20    10.0   .     S
V10     V24    10.0   .     S
V11     V23    10.0   .     S
V11     V19    10.0   .     S
V11     V24    10.0   1_545     S
V11     V15    10.0   1_554     S
V11     V17    10.0   1_655     S
V11     V21    10.0   1_655     S
V12     V24    10.0   .     S
V12     V20    10.0   .     S
V12     V23    10.0   .     S
V12     V16    10.0   1_554     S
V12     V18    10.0   1_655     S
V12     V22    10.0   1_655     S
V13     V19    10.0   1_556     S
V13     V18    10.0   1_546     S
V13     V9    10.0   1_556     S
V13     V22    10.0   1_546     S
V13     V2    10.0   1_545     S
V13     V17    10.0   1_556     S
V14     V20    10.0   1_556     S
V14     V17    10.0   1_556     S
V14     V10    10.0   1_556     S
V14     V21    10.0   1_556     S
V14     V18    10.0   1_556     S
V15     V17    10.0   1_656     S
V15     V20    10.0   1_546     S
V15     V11    10.0   1_556     S
V15     V24    10.0   1_546     S
V15     V4    10.0   1_545     S
V15     V19    10.0   1_556     S
V16     V18    10.0   1_656     S
V16     V19    10.0   1_556     S
V16     V12    10.0   1_556     S
V16     V23    10.0   1_556     S
V16     V20    10.0   1_556     S
V17     V1    10.0   1_554     S
V17     V15    10.0   1_454     S
V17     V7    10.0   1_454     S
V17     V14    10.0   1_554     S
V17     V21    10.0   .     S
V17     V11    10.0   1_455     S
V17     V13    10.0   1_554     S
V18     V2    10.0   1_554     S
V18     V16    10.0   1_454     S
V18     V8    10.0   1_454     S
V18     V13    10.0   1_564     S
V18     V22    10.0   .     S
V18     V12    10.0   1_455     S
V18     V14    10.0   1_554     S
V19     V3    10.0   1_554     S
V19     V13    10.0   1_554     S
V19     V5    10.0   1_554     S
V19     V16    10.0   1_554     S
V19     V23    10.0   .     S
V19     V15    10.0   1_554     S
V20     V4    10.0   1_554     S
V20     V14    10.0   1_554     S
V20     V6    10.0   1_554     S
V20     V15    10.0   1_564     S
V20     V24    10.0   .     S
V20     V16    10.0   1_554     S
V21     V14    10.0   1_554     S
V21     V7    10.0   1_455     S
V21     V11    10.0   1_455     S
V22     V9    10.0   1_565     S
V22     V13    10.0   1_564     S
V22     V8    10.0   1_455     S
V22     V5    10.0   1_565     S
V22     V12    10.0   1_455     S
V23     V16    10.0   1_554     S
V24     V11    10.0   1_565     S
V24     V15    10.0   1_564     S
V24     V7    10.0   1_565     S
