data_ect
_audit_creation_date              2019-12-31
_audit_creation_method            'Pymatgen'
_symmetry_space_group_name_H-M    'P1'
_symmetry_Int_Tables_number       1
loop_
_symmetry_equiv_pos_as_xyz
  x,y,z
_cell_length_a                    26.2278
_cell_length_b                    26.2278
_cell_length_c                    36.9786
_cell_angle_alpha                 90.0
_cell_angle_beta                 90.0
_cell_angle_gamma                 120.0
loop_
_atom_site_label
_atom_site_type_symbol
_atom_site_fract_x
_atom_site_fract_y
_atom_site_fract_z
V1     V     0.2861   0.8593   0.479
V2     V     0.2861   0.8593   0.979
V3     V     0.7139   0.1407   0.021
V4     V     0.7139   0.1407   0.521
V5     V     0.4267   0.1407   0.271
V6     V     0.4267   0.1407   0.771
V7     V     0.5733   0.8593   0.229
V8     V     0.5733   0.8593   0.729
V9     V     0.4267   0.2861   0.021
V10     V     0.4267   0.2861   0.521
V11     V     0.5733   0.7139   0.479
V12     V     0.5733   0.7139   0.979
V13     V     0.7139   0.5733   0.271
V14     V     0.7139   0.5733   0.771
V15     V     0.2861   0.4267   0.229
V16     V     0.2861   0.4267   0.729
V17     V     0.1407   0.4267   0.479
V18     V     0.1407   0.4267   0.979
V19     V     0.8593   0.5733   0.021
V20     V     0.8593   0.5733   0.521
V21     V     0.8593   0.2861   0.271
V22     V     0.8593   0.2861   0.771
V23     V     0.1407   0.7139   0.229
V24     V     0.1407   0.7139   0.729
loop_
_geom_bond_atom_site_label_1
_geom_bond_atom_site_label_2
_geom_bond_distance
_geom_bond_site_symmetry_2
_ccdc_geom_bond_type
V1     V10    10.0   1_565     S
V1     V17    10.0   .     S
V1     V20    10.0   1_455     S
V1     V24    10.0   .     S
V1     V4    10.0   1_565     S
V1     V5    10.0   1_565     S
V1     V11    10.0   .     S
V1     V23    10.0   .     S
V2     V9    10.0   1_566     S
V2     V18    10.0   .     S
V2     V19    10.0   1_456     S
V2     V23    10.0   1_556     S
V2     V3    10.0   1_566     S
V2     V6    10.0   1_565     S
V2     V12    10.0   .     S
V2     V24    10.0   .     S
V3     V21    10.0   .     S
V3     V9    10.0   .     S
V3     V2    10.0   1_544     S
V3     V7    10.0   1_545     S
V3     V12    10.0   1_544     S
V3     V19    10.0   .     S
V3     V18    10.0   1_654     S
V3     V22    10.0   1_554     S
V4     V22    10.0   .     S
V4     V10    10.0   .     S
V4     V1    10.0   1_545     S
V4     V8    10.0   1_545     S
V4     V11    10.0   1_545     S
V4     V20    10.0   .     S
V4     V17    10.0   1_655     S
V4     V21    10.0   .     S
V5     V21    10.0   .     S
V5     V10    10.0   .     S
V5     V13    10.0   .     S
V5     V15    10.0   .     S
V5     V9    10.0   .     S
V5     V7    10.0   1_545     S
V5     V1    10.0   1_545     S
V5     V23    10.0   1_545     S
V6     V22    10.0   .     S
V6     V9    10.0   1_556     S
V6     V14    10.0   .     S
V6     V16    10.0   .     S
V6     V10    10.0   .     S
V6     V8    10.0   1_545     S
V6     V2    10.0   1_545     S
V6     V24    10.0   1_545     S
V7     V21    10.0   1_565     S
V7     V15    10.0   .     S
V7     V13    10.0   .     S
V7     V11    10.0   .     S
V7     V5    10.0   1_565     S
V7     V3    10.0   1_565     S
V7     V12    10.0   1_554     S
V7     V23    10.0   .     S
V8     V22    10.0   1_565     S
V8     V16    10.0   .     S
V8     V14    10.0   .     S
V8     V12    10.0   .     S
V8     V6    10.0   1_565     S
V8     V4    10.0   1_565     S
V8     V11    10.0   .     S
V8     V24    10.0   .     S
V9     V2    10.0   1_544     S
V9     V6    10.0   1_554     S
V9     V18    10.0   1_554     S
V9     V19    10.0   .     S
V9     V12    10.0   1_554     S
V9     V15    10.0   .     S
V10     V1    10.0   1_545     S
V10     V17    10.0   .     S
V10     V20    10.0   .     S
V10     V11    10.0   .     S
V10     V16    10.0   .     S
V11     V17    10.0   .     S
V11     V20    10.0   .     S
V11     V4    10.0   1_565     S
V11     V13    10.0   .     S
V12     V18    10.0   .     S
V12     V19    10.0   1_556     S
V12     V3    10.0   1_566     S
V12     V7    10.0   1_556     S
V12     V9    10.0   1_556     S
V12     V14    10.0   .     S
V13     V20    10.0   .     S
V13     V15    10.0   .     S
V13     V21    10.0   .     S
V13     V23    10.0   1_655     S
V13     V19    10.0   .     S
V14     V19    10.0   1_556     S
V14     V16    10.0   .     S
V14     V22    10.0   .     S
V14     V24    10.0   1_655     S
V14     V20    10.0   .     S
V15     V23    10.0   .     S
V15     V21    10.0   1_455     S
V15     V17    10.0   .     S
V15     V18    10.0   1_554     S
V16     V24    10.0   .     S
V16     V22    10.0   1_455     S
V16     V18    10.0   .     S
V16     V17    10.0   .     S
V17     V4    10.0   1_455     S
V17     V20    10.0   1_455     S
V17     V21    10.0   1_455     S
V18     V9    10.0   1_556     S
V18     V15    10.0   1_556     S
V18     V3    10.0   1_456     S
V18     V19    10.0   1_456     S
V18     V22    10.0   1_455     S
V19     V2    10.0   1_654     S
V19     V12    10.0   1_554     S
V19     V14    10.0   1_554     S
V19     V18    10.0   1_654     S
V19     V23    10.0   1_655     S
V20     V1    10.0   1_655     S
V20     V17    10.0   1_655     S
V20     V24    10.0   1_655     S
V21     V7    10.0   1_545     S
V21     V15    10.0   1_655     S
V21     V17    10.0   1_655     S
V21     V23    10.0   1_655     S
V22     V8    10.0   1_545     S
V22     V16    10.0   1_655     S
V22     V3    10.0   1_556     S
V22     V18    10.0   1_655     S
V22     V24    10.0   1_655     S
V23     V2    10.0   1_554     S
V23     V13    10.0   1_455     S
V23     V5    10.0   1_565     S
V23     V21    10.0   1_455     S
V23     V19    10.0   1_455     S
V24     V14    10.0   1_455     S
V24     V6    10.0   1_565     S
V24     V22    10.0   1_455     S
V24     V20    10.0   1_455     S
