data_ecv
_audit_creation_date              2019-12-31
_audit_creation_method            'Pymatgen'
_symmetry_space_group_name_H-M    'P1'
_symmetry_Int_Tables_number       1
loop_
_symmetry_equiv_pos_as_xyz
  x,y,z
_cell_length_a                    25.4322
_cell_length_b                    30.874
_cell_length_c                    65.5152
_cell_angle_alpha                 90.0
_cell_angle_beta                 90.0
_cell_angle_gamma                 90.0
loop_
_atom_site_label
_atom_site_type_symbol
_atom_site_fract_x
_atom_site_fract_y
_atom_site_fract_z
V1     V     0.3125   0.0625   0.3161
V2     V     0.3125   0.5625   0.3161
V3     V     0.8125   0.0625   0.3161
V4     V     0.8125   0.5625   0.3161
V5     V     0.0625   0.3125   0.3161
V6     V     0.0625   0.8125   0.3161
V7     V     0.5625   0.3125   0.3161
V8     V     0.5625   0.8125   0.3161
V9     V     0.4375   0.4375   0.1839
V10     V     0.4375   0.9375   0.1839
V11     V     0.9375   0.4375   0.1839
V12     V     0.9375   0.9375   0.1839
V13     V     0.1875   0.1875   0.1839
V14     V     0.1875   0.6875   0.1839
V15     V     0.6875   0.1875   0.1839
V16     V     0.6875   0.6875   0.1839
V17     V     0.4375   0.1875   0.0661
V18     V     0.4375   0.6875   0.0661
V19     V     0.9375   0.1875   0.0661
V20     V     0.9375   0.6875   0.0661
V21     V     0.1875   0.4375   0.0661
V22     V     0.1875   0.9375   0.0661
V23     V     0.6875   0.4375   0.0661
V24     V     0.6875   0.9375   0.0661
V25     V     0.0625   0.3125   0.9339
V26     V     0.0625   0.8125   0.9339
V27     V     0.5625   0.3125   0.9339
V28     V     0.5625   0.8125   0.9339
V29     V     0.3125   0.0625   0.9339
V30     V     0.3125   0.5625   0.9339
V31     V     0.8125   0.0625   0.9339
V32     V     0.8125   0.5625   0.9339
V33     V     0.0625   0.0625   0.4339
V34     V     0.0625   0.5625   0.4339
V35     V     0.5625   0.0625   0.4339
V36     V     0.5625   0.5625   0.4339
V37     V     0.3125   0.3125   0.4339
V38     V     0.3125   0.8125   0.4339
V39     V     0.8125   0.3125   0.4339
V40     V     0.8125   0.8125   0.4339
V41     V     0.4375   0.4375   0.5661
V42     V     0.4375   0.9375   0.5661
V43     V     0.9375   0.4375   0.5661
V44     V     0.9375   0.9375   0.5661
V45     V     0.1875   0.1875   0.5661
V46     V     0.1875   0.6875   0.5661
V47     V     0.6875   0.1875   0.5661
V48     V     0.6875   0.6875   0.5661
V49     V     0.4375   0.1875   0.6839
V50     V     0.4375   0.6875   0.6839
V51     V     0.9375   0.1875   0.6839
V52     V     0.9375   0.6875   0.6839
V53     V     0.0625   0.0625   0.8161
V54     V     0.0625   0.5625   0.8161
V55     V     0.5625   0.0625   0.8161
V56     V     0.5625   0.5625   0.8161
V57     V     0.1875   0.4375   0.6839
V58     V     0.1875   0.9375   0.6839
V59     V     0.6875   0.4375   0.6839
V60     V     0.6875   0.9375   0.6839
V61     V     0.3125   0.3125   0.8161
V62     V     0.3125   0.8125   0.8161
V63     V     0.8125   0.3125   0.8161
V64     V     0.8125   0.8125   0.8161
loop_
_geom_bond_atom_site_label_1
_geom_bond_atom_site_label_2
_geom_bond_distance
_geom_bond_site_symmetry_2
_ccdc_geom_bond_type
V1     V10    10.0   1_545     S
V1     V8    10.0   1_545     S
V1     V13    10.0   .     S
V1     V5    10.0   .     S
V1     V6    10.0   1_545     S
V1     V7    10.0   .     S
V1     V33    10.0   .     S
V1     V35    10.0   .     S
V2     V9    10.0   .     S
V2     V7    10.0   .     S
V2     V14    10.0   .     S
V2     V6    10.0   .     S
V2     V5    10.0   .     S
V2     V8    10.0   .     S
V2     V34    10.0   .     S
V2     V36    10.0   .     S
V3     V12    10.0   1_545     S
V3     V6    10.0   1_645     S
V3     V15    10.0   .     S
V3     V7    10.0   .     S
V3     V8    10.0   1_545     S
V3     V5    10.0   1_655     S
V3     V35    10.0   .     S
V3     V33    10.0   1_655     S
V4     V11    10.0   .     S
V4     V5    10.0   1_655     S
V4     V16    10.0   .     S
V4     V8    10.0   .     S
V4     V7    10.0   .     S
V4     V6    10.0   1_655     S
V4     V36    10.0   .     S
V4     V34    10.0   1_655     S
V5     V4    10.0   1_455     S
V5     V11    10.0   1_455     S
V5     V13    10.0   .     S
V5     V3    10.0   1_455     S
V5     V37    10.0   .     S
V5     V39    10.0   1_455     S
V6     V3    10.0   1_465     S
V6     V12    10.0   1_455     S
V6     V14    10.0   .     S
V6     V1    10.0   1_565     S
V6     V4    10.0   1_455     S
V6     V38    10.0   .     S
V6     V40    10.0   1_455     S
V7     V9    10.0   .     S
V7     V15    10.0   .     S
V7     V39    10.0   .     S
V7     V37    10.0   .     S
V8     V1    10.0   1_565     S
V8     V10    10.0   .     S
V8     V16    10.0   .     S
V8     V3    10.0   1_565     S
V8     V40    10.0   .     S
V8     V38    10.0   .     S
V9     V15    10.0   .     S
V9     V14    10.0   .     S
V9     V13    10.0   .     S
V9     V16    10.0   .     S
V9     V23    10.0   .     S
V9     V21    10.0   .     S
V10     V1    10.0   1_565     S
V10     V16    10.0   .     S
V10     V13    10.0   1_565     S
V10     V14    10.0   .     S
V10     V15    10.0   1_565     S
V10     V24    10.0   .     S
V10     V22    10.0   .     S
V11     V5    10.0   1_655     S
V11     V13    10.0   1_655     S
V11     V16    10.0   .     S
V11     V15    10.0   .     S
V11     V14    10.0   1_655     S
V11     V21    10.0   1_655     S
V11     V23    10.0   .     S
V12     V3    10.0   1_565     S
V12     V6    10.0   1_655     S
V12     V14    10.0   1_655     S
V12     V15    10.0   1_565     S
V12     V16    10.0   .     S
V12     V13    10.0   1_665     S
V12     V22    10.0   1_655     S
V12     V24    10.0   .     S
V13     V11    10.0   1_455     S
V13     V10    10.0   1_545     S
V13     V12    10.0   1_445     S
V13     V17    10.0   .     S
V13     V19    10.0   1_455     S
V14     V12    10.0   1_455     S
V14     V11    10.0   1_455     S
V14     V18    10.0   .     S
V14     V20    10.0   1_455     S
V15     V12    10.0   1_545     S
V15     V10    10.0   1_545     S
V15     V19    10.0   .     S
V15     V17    10.0   .     S
V16     V20    10.0   .     S
V16     V18    10.0   .     S
V17     V27    10.0   1_554     S
V17     V23    10.0   .     S
V17     V29    10.0   1_554     S
V17     V22    10.0   1_545     S
V17     V21    10.0   .     S
V17     V24    10.0   1_545     S
V18     V28    10.0   1_554     S
V18     V24    10.0   .     S
V18     V30    10.0   1_554     S
V18     V21    10.0   .     S
V18     V22    10.0   .     S
V18     V23    10.0   .     S
V19     V25    10.0   1_654     S
V19     V21    10.0   1_655     S
V19     V31    10.0   1_554     S
V19     V24    10.0   1_545     S
V19     V23    10.0   .     S
V19     V22    10.0   1_645     S
V19     V13    10.0   1_655     S
V20     V26    10.0   1_654     S
V20     V22    10.0   1_655     S
V20     V32    10.0   1_554     S
V20     V23    10.0   .     S
V20     V24    10.0   .     S
V20     V21    10.0   1_655     S
V20     V14    10.0   1_655     S
V21     V11    10.0   1_455     S
V21     V19    10.0   1_455     S
V21     V25    10.0   1_554     S
V21     V30    10.0   1_554     S
V21     V20    10.0   1_455     S
V22     V12    10.0   1_455     S
V22     V20    10.0   1_455     S
V22     V26    10.0   1_554     S
V22     V17    10.0   1_565     S
V22     V29    10.0   1_564     S
V22     V19    10.0   1_465     S
V23     V27    10.0   1_554     S
V23     V32    10.0   1_554     S
V24     V28    10.0   1_554     S
V24     V19    10.0   1_565     S
V24     V31    10.0   1_564     S
V24     V17    10.0   1_565     S
V25     V19    10.0   1_456     S
V25     V21    10.0   1_556     S
V25     V30    10.0   .     S
V25     V31    10.0   1_455     S
V25     V29    10.0   .     S
V25     V32    10.0   1_455     S
V25     V63    10.0   1_455     S
V25     V61    10.0   .     S
V26     V20    10.0   1_456     S
V26     V22    10.0   1_556     S
V26     V29    10.0   1_565     S
V26     V32    10.0   1_455     S
V26     V30    10.0   .     S
V26     V31    10.0   1_465     S
V26     V64    10.0   1_455     S
V26     V62    10.0   .     S
V27     V17    10.0   1_556     S
V27     V23    10.0   1_556     S
V27     V32    10.0   .     S
V27     V29    10.0   .     S
V27     V31    10.0   .     S
V27     V30    10.0   .     S
V27     V61    10.0   .     S
V27     V63    10.0   .     S
V28     V18    10.0   1_556     S
V28     V24    10.0   1_556     S
V28     V31    10.0   1_565     S
V28     V30    10.0   .     S
V28     V32    10.0   .     S
V28     V29    10.0   1_565     S
V28     V62    10.0   .     S
V28     V64    10.0   .     S
V29     V17    10.0   1_556     S
V29     V22    10.0   1_546     S
V29     V26    10.0   1_545     S
V29     V28    10.0   1_545     S
V29     V53    10.0   .     S
V29     V55    10.0   .     S
V30     V18    10.0   1_556     S
V30     V21    10.0   1_556     S
V30     V54    10.0   .     S
V30     V56    10.0   .     S
V31     V19    10.0   1_556     S
V31     V24    10.0   1_546     S
V31     V28    10.0   1_545     S
V31     V25    10.0   1_655     S
V31     V26    10.0   1_645     S
V31     V55    10.0   .     S
V31     V53    10.0   1_655     S
V32     V20    10.0   1_556     S
V32     V23    10.0   1_556     S
V32     V26    10.0   1_655     S
V32     V25    10.0   1_655     S
V32     V56    10.0   .     S
V32     V54    10.0   1_655     S
V33     V45    10.0   .     S
V33     V37    10.0   .     S
V33     V44    10.0   1_445     S
V33     V40    10.0   1_445     S
V33     V38    10.0   1_545     S
V33     V39    10.0   1_455     S
V33     V3    10.0   1_455     S
V34     V46    10.0   .     S
V34     V38    10.0   .     S
V34     V43    10.0   1_455     S
V34     V39    10.0   1_455     S
V34     V37    10.0   .     S
V34     V40    10.0   1_455     S
V34     V4    10.0   1_455     S
V35     V47    10.0   .     S
V35     V39    10.0   .     S
V35     V42    10.0   1_545     S
V35     V38    10.0   1_545     S
V35     V40    10.0   1_545     S
V35     V37    10.0   .     S
V36     V48    10.0   .     S
V36     V40    10.0   .     S
V36     V41    10.0   .     S
V36     V37    10.0   .     S
V36     V39    10.0   .     S
V36     V38    10.0   .     S
V37     V41    10.0   .     S
V37     V45    10.0   .     S
V38     V35    10.0   1_565     S
V38     V42    10.0   .     S
V38     V46    10.0   .     S
V38     V33    10.0   1_565     S
V39     V34    10.0   1_655     S
V39     V43    10.0   .     S
V39     V47    10.0   .     S
V39     V33    10.0   1_655     S
V39     V5    10.0   1_655     S
V40     V33    10.0   1_665     S
V40     V44    10.0   .     S
V40     V48    10.0   .     S
V40     V35    10.0   1_565     S
V40     V34    10.0   1_655     S
V40     V6    10.0   1_655     S
V41     V45    10.0   .     S
V41     V48    10.0   .     S
V41     V46    10.0   .     S
V41     V47    10.0   .     S
V41     V59    10.0   .     S
V41     V57    10.0   .     S
V42     V35    10.0   1_565     S
V42     V46    10.0   .     S
V42     V47    10.0   1_565     S
V42     V45    10.0   1_565     S
V42     V48    10.0   .     S
V42     V60    10.0   .     S
V42     V58    10.0   .     S
V43     V34    10.0   1_655     S
V43     V47    10.0   .     S
V43     V46    10.0   1_655     S
V43     V48    10.0   .     S
V43     V45    10.0   1_655     S
V43     V57    10.0   1_655     S
V43     V59    10.0   .     S
V44     V33    10.0   1_665     S
V44     V48    10.0   .     S
V44     V45    10.0   1_665     S
V44     V47    10.0   1_565     S
V44     V46    10.0   1_655     S
V44     V58    10.0   1_655     S
V44     V60    10.0   .     S
V45     V44    10.0   1_445     S
V45     V42    10.0   1_545     S
V45     V43    10.0   1_455     S
V45     V49    10.0   .     S
V45     V51    10.0   1_455     S
V46     V43    10.0   1_455     S
V46     V44    10.0   1_455     S
V46     V50    10.0   .     S
V46     V52    10.0   1_455     S
V47     V42    10.0   1_545     S
V47     V44    10.0   1_545     S
V47     V51    10.0   .     S
V47     V49    10.0   .     S
V48     V52    10.0   .     S
V48     V50    10.0   .     S
V49     V55    10.0   .     S
V49     V60    10.0   1_545     S
V49     V61    10.0   .     S
V49     V57    10.0   .     S
V49     V58    10.0   1_545     S
V49     V59    10.0   .     S
V50     V56    10.0   .     S
V50     V59    10.0   .     S
V50     V62    10.0   .     S
V50     V58    10.0   .     S
V50     V57    10.0   .     S
V50     V60    10.0   .     S
V51     V53    10.0   1_655     S
V51     V58    10.0   1_645     S
V51     V63    10.0   .     S
V51     V59    10.0   .     S
V51     V60    10.0   1_545     S
V51     V57    10.0   1_655     S
V51     V45    10.0   1_655     S
V52     V54    10.0   1_655     S
V52     V57    10.0   1_655     S
V52     V64    10.0   .     S
V52     V60    10.0   .     S
V52     V59    10.0   .     S
V52     V58    10.0   1_655     S
V52     V46    10.0   1_655     S
V53     V51    10.0   1_455     S
V53     V63    10.0   1_455     S
V53     V58    10.0   1_545     S
V53     V62    10.0   1_545     S
V53     V61    10.0   .     S
V53     V64    10.0   1_445     S
V53     V31    10.0   1_455     S
V54     V52    10.0   1_455     S
V54     V64    10.0   1_455     S
V54     V57    10.0   .     S
V54     V61    10.0   .     S
V54     V62    10.0   .     S
V54     V63    10.0   1_455     S
V54     V32    10.0   1_455     S
V55     V61    10.0   .     S
V55     V60    10.0   1_545     S
V55     V64    10.0   1_545     S
V55     V63    10.0   .     S
V55     V62    10.0   1_545     S
V56     V62    10.0   .     S
V56     V59    10.0   .     S
V56     V63    10.0   .     S
V56     V64    10.0   .     S
V56     V61    10.0   .     S
V57     V43    10.0   1_455     S
V57     V52    10.0   1_455     S
V57     V61    10.0   .     S
V57     V51    10.0   1_455     S
V58     V44    10.0   1_455     S
V58     V51    10.0   1_465     S
V58     V53    10.0   1_565     S
V58     V62    10.0   .     S
V58     V49    10.0   1_565     S
V58     V52    10.0   1_455     S
V59     V63    10.0   .     S
V60     V49    10.0   1_565     S
V60     V55    10.0   1_565     S
V60     V64    10.0   .     S
V60     V51    10.0   1_565     S
V62     V53    10.0   1_565     S
V62     V55    10.0   1_565     S
V63     V25    10.0   1_655     S
V63     V53    10.0   1_655     S
V63     V54    10.0   1_655     S
V64     V26    10.0   1_655     S
V64     V54    10.0   1_655     S
V64     V55    10.0   1_565     S
V64     V53    10.0   1_665     S
