data_edc
_audit_creation_date              2019-12-31
_audit_creation_method            'Pymatgen'
_symmetry_space_group_name_H-M    'P1'
_symmetry_Int_Tables_number       1
loop_
_symmetry_equiv_pos_as_xyz
  x,y,z
_cell_length_a                    39.0152
_cell_length_b                    39.0152
_cell_length_c                    37.579
_cell_angle_alpha                 90.0
_cell_angle_beta                 90.0
_cell_angle_gamma                 120.0
loop_
_atom_site_label
_atom_site_type_symbol
_atom_site_fract_x
_atom_site_fract_y
_atom_site_fract_z
Er1     Er     0.1667   0.3333   0.375
Er2     Er     0.1667   0.3333   0.875
Er3     Er     0.1667   0.8333   0.375
Er4     Er     0.1667   0.8333   0.875
Er5     Er     0.6667   0.3333   0.375
Er6     Er     0.6667   0.3333   0.875
Er7     Er     0.6667   0.8333   0.375
Er8     Er     0.6667   0.8333   0.875
V9     V     0.384   0.116   0.375
V10     V     0.384   0.116   0.875
V11     V     0.384   0.616   0.375
V12     V     0.384   0.616   0.875
V13     V     0.884   0.116   0.375
V14     V     0.884   0.116   0.875
V15     V     0.884   0.616   0.375
V16     V     0.884   0.616   0.875
V17     V     0.384   0.2681   0.375
V18     V     0.384   0.2681   0.875
V19     V     0.384   0.7681   0.375
V20     V     0.384   0.7681   0.875
V21     V     0.884   0.2681   0.375
V22     V     0.884   0.2681   0.875
V23     V     0.884   0.7681   0.375
V24     V     0.884   0.7681   0.875
V25     V     0.2319   0.116   0.375
V26     V     0.2319   0.116   0.875
V27     V     0.2319   0.616   0.375
V28     V     0.2319   0.616   0.875
V29     V     0.7319   0.116   0.375
V30     V     0.7319   0.116   0.875
V31     V     0.7319   0.616   0.375
V32     V     0.7319   0.616   0.875
Er33     Er     0.3333   0.1667   0.125
Er34     Er     0.3333   0.1667   0.625
Er35     Er     0.3333   0.6667   0.125
Er36     Er     0.3333   0.6667   0.625
Er37     Er     0.8333   0.1667   0.125
Er38     Er     0.8333   0.1667   0.625
Er39     Er     0.8333   0.6667   0.125
Er40     Er     0.8333   0.6667   0.625
V41     V     0.116   0.2319   0.125
V42     V     0.116   0.2319   0.625
V43     V     0.116   0.7319   0.125
V44     V     0.116   0.7319   0.625
V45     V     0.616   0.2319   0.125
V46     V     0.616   0.2319   0.625
V47     V     0.616   0.7319   0.125
V48     V     0.616   0.7319   0.625
V49     V     0.2681   0.384   0.125
V50     V     0.2681   0.384   0.625
V51     V     0.2681   0.884   0.125
V52     V     0.2681   0.884   0.625
V53     V     0.7681   0.384   0.125
V54     V     0.7681   0.384   0.625
V55     V     0.7681   0.884   0.125
V56     V     0.7681   0.884   0.625
V57     V     0.116   0.384   0.125
V58     V     0.116   0.384   0.625
V59     V     0.116   0.884   0.125
V60     V     0.116   0.884   0.625
V61     V     0.616   0.384   0.125
V62     V     0.616   0.384   0.625
V63     V     0.616   0.884   0.125
V64     V     0.616   0.884   0.625
loop_
_geom_bond_atom_site_label_1
_geom_bond_atom_site_label_2
_geom_bond_distance
_geom_bond_site_symmetry_2
_ccdc_geom_bond_type
Er1     V49    10.0   .     S
Er1     V57    10.0   .     S
Er1     V41    10.0   .     S
Er1     V27    10.0   .     S
Er1     V11    10.0   .     S
Er1     V13    10.0   1_455     S
Er1     V21    10.0   1_455     S
Er1     V17    10.0   .     S
Er1     V25    10.0   .     S
Er1     V42    10.0   .     S
Er1     V58    10.0   .     S
Er1     V50    10.0   .     S
Er2     V50    10.0   .     S
Er2     V58    10.0   .     S
Er2     V42    10.0   .     S
Er2     V28    10.0   .     S
Er2     V12    10.0   .     S
Er2     V14    10.0   1_455     S
Er2     V22    10.0   1_455     S
Er2     V18    10.0   .     S
Er2     V26    10.0   .     S
Er2     V41    10.0   1_556     S
Er2     V57    10.0   1_556     S
Er2     V49    10.0   1_556     S
Er3     V51    10.0   .     S
Er3     V59    10.0   .     S
Er3     V43    10.0   .     S
Er3     V25    10.0   1_565     S
Er3     V9    10.0   1_565     S
Er3     V15    10.0   1_455     S
Er3     V23    10.0   1_455     S
Er3     V19    10.0   .     S
Er3     V27    10.0   .     S
Er3     V44    10.0   .     S
Er3     V60    10.0   .     S
Er3     V52    10.0   .     S
Er4     V52    10.0   .     S
Er4     V60    10.0   .     S
Er4     V44    10.0   .     S
Er4     V26    10.0   1_565     S
Er4     V10    10.0   1_565     S
Er4     V16    10.0   1_455     S
Er4     V24    10.0   1_455     S
Er4     V20    10.0   .     S
Er4     V28    10.0   .     S
Er4     V43    10.0   1_556     S
Er4     V59    10.0   1_556     S
Er4     V51    10.0   1_556     S
Er5     V53    10.0   .     S
Er5     V61    10.0   .     S
Er5     V45    10.0   .     S
Er5     V31    10.0   .     S
Er5     V15    10.0   .     S
Er5     V9    10.0   .     S
Er5     V17    10.0   .     S
Er5     V21    10.0   .     S
Er5     V29    10.0   .     S
Er5     V46    10.0   .     S
Er5     V62    10.0   .     S
Er5     V54    10.0   .     S
Er6     V54    10.0   .     S
Er6     V62    10.0   .     S
Er6     V46    10.0   .     S
Er6     V32    10.0   .     S
Er6     V16    10.0   .     S
Er6     V10    10.0   .     S
Er6     V18    10.0   .     S
Er6     V22    10.0   .     S
Er6     V30    10.0   .     S
Er6     V45    10.0   1_556     S
Er6     V61    10.0   1_556     S
Er6     V53    10.0   1_556     S
Er7     V55    10.0   .     S
Er7     V63    10.0   .     S
Er7     V47    10.0   .     S
Er7     V29    10.0   1_565     S
Er7     V13    10.0   1_565     S
Er7     V11    10.0   .     S
Er7     V19    10.0   .     S
Er7     V23    10.0   .     S
Er7     V31    10.0   .     S
Er7     V48    10.0   .     S
Er7     V64    10.0   .     S
Er7     V56    10.0   .     S
Er8     V56    10.0   .     S
Er8     V64    10.0   .     S
Er8     V48    10.0   .     S
Er8     V30    10.0   1_565     S
Er8     V14    10.0   1_565     S
Er8     V12    10.0   .     S
Er8     V20    10.0   .     S
Er8     V24    10.0   .     S
Er8     V32    10.0   .     S
Er8     V47    10.0   1_556     S
Er8     V63    10.0   1_556     S
Er8     V55    10.0   1_556     S
V9     Er34    10.0   .     S
V9     Er33    10.0   .     S
V9     Er3    10.0   1_545     S
V10     Er33    10.0   1_556     S
V10     Er34    10.0   .     S
V10     Er4    10.0   1_545     S
V11     Er36    10.0   .     S
V11     Er35    10.0   .     S
V12     Er35    10.0   1_556     S
V12     Er36    10.0   .     S
V13     Er38    10.0   .     S
V13     Er37    10.0   .     S
V13     Er7    10.0   1_545     S
V13     Er1    10.0   1_655     S
V14     Er37    10.0   1_556     S
V14     Er38    10.0   .     S
V14     Er8    10.0   1_545     S
V14     Er2    10.0   1_655     S
V15     Er40    10.0   .     S
V15     Er39    10.0   .     S
V15     Er3    10.0   1_655     S
V16     Er39    10.0   1_556     S
V16     Er40    10.0   .     S
V16     Er4    10.0   1_655     S
V17     Er34    10.0   .     S
V17     Er33    10.0   .     S
V18     Er33    10.0   1_556     S
V18     Er34    10.0   .     S
V19     Er36    10.0   .     S
V19     Er35    10.0   .     S
V20     Er35    10.0   1_556     S
V20     Er36    10.0   .     S
V21     Er38    10.0   .     S
V21     Er37    10.0   .     S
V21     Er1    10.0   1_655     S
V22     Er37    10.0   1_556     S
V22     Er38    10.0   .     S
V22     Er2    10.0   1_655     S
V23     Er40    10.0   .     S
V23     Er39    10.0   .     S
V23     Er3    10.0   1_655     S
V24     Er39    10.0   1_556     S
V24     Er40    10.0   .     S
V24     Er4    10.0   1_655     S
V25     Er34    10.0   .     S
V25     Er33    10.0   .     S
V25     Er3    10.0   1_545     S
V26     Er33    10.0   1_556     S
V26     Er34    10.0   .     S
V26     Er4    10.0   1_545     S
V27     Er36    10.0   .     S
V27     Er35    10.0   .     S
V28     Er35    10.0   1_556     S
V28     Er36    10.0   .     S
V29     Er38    10.0   .     S
V29     Er37    10.0   .     S
V29     Er7    10.0   1_545     S
V30     Er37    10.0   1_556     S
V30     Er38    10.0   .     S
V30     Er8    10.0   1_545     S
V31     Er40    10.0   .     S
V31     Er39    10.0   .     S
V32     Er39    10.0   1_556     S
V32     Er40    10.0   .     S
Er33     V18    10.0   1_554     S
Er33     V10    10.0   1_554     S
Er33     V26    10.0   1_554     S
Er33     V61    10.0   .     S
Er33     V45    10.0   .     S
Er33     V51    10.0   1_545     S
Er33     V59    10.0   1_545     S
Er33     V41    10.0   .     S
Er33     V49    10.0   .     S
Er34     V62    10.0   .     S
Er34     V46    10.0   .     S
Er34     V52    10.0   1_545     S
Er34     V60    10.0   1_545     S
Er34     V42    10.0   .     S
Er34     V50    10.0   .     S
Er35     V20    10.0   1_554     S
Er35     V12    10.0   1_554     S
Er35     V28    10.0   1_554     S
Er35     V63    10.0   .     S
Er35     V47    10.0   .     S
Er35     V49    10.0   .     S
Er35     V57    10.0   .     S
Er35     V43    10.0   .     S
Er35     V51    10.0   .     S
Er36     V64    10.0   .     S
Er36     V48    10.0   .     S
Er36     V50    10.0   .     S
Er36     V58    10.0   .     S
Er36     V44    10.0   .     S
Er36     V52    10.0   .     S
Er37     V22    10.0   1_554     S
Er37     V14    10.0   1_554     S
Er37     V30    10.0   1_554     S
Er37     V57    10.0   1_655     S
Er37     V41    10.0   1_655     S
Er37     V55    10.0   1_545     S
Er37     V63    10.0   1_545     S
Er37     V45    10.0   .     S
Er37     V53    10.0   .     S
Er38     V58    10.0   1_655     S
Er38     V42    10.0   1_655     S
Er38     V56    10.0   1_545     S
Er38     V64    10.0   1_545     S
Er38     V46    10.0   .     S
Er38     V54    10.0   .     S
Er39     V24    10.0   1_554     S
Er39     V16    10.0   1_554     S
Er39     V32    10.0   1_554     S
Er39     V59    10.0   1_655     S
Er39     V43    10.0   1_655     S
Er39     V53    10.0   .     S
Er39     V61    10.0   .     S
Er39     V47    10.0   .     S
Er39     V55    10.0   .     S
Er40     V60    10.0   1_655     S
Er40     V44    10.0   1_655     S
Er40     V54    10.0   .     S
Er40     V62    10.0   .     S
Er40     V48    10.0   .     S
Er40     V56    10.0   .     S
V41     Er2    10.0   1_554     S
V41     Er37    10.0   1_455     S
V42     Er38    10.0   1_455     S
V43     Er4    10.0   1_554     S
V43     Er39    10.0   1_455     S
V44     Er40    10.0   1_455     S
V45     Er6    10.0   1_554     S
V47     Er8    10.0   1_554     S
V49     Er2    10.0   1_554     S
V51     Er4    10.0   1_554     S
V51     Er33    10.0   1_565     S
V52     Er34    10.0   1_565     S
V53     Er6    10.0   1_554     S
V55     Er8    10.0   1_554     S
V55     Er37    10.0   1_565     S
V56     Er38    10.0   1_565     S
V57     Er2    10.0   1_554     S
V57     Er37    10.0   1_455     S
V58     Er38    10.0   1_455     S
V59     Er4    10.0   1_554     S
V59     Er39    10.0   1_455     S
V59     Er33    10.0   1_565     S
V60     Er40    10.0   1_455     S
V60     Er34    10.0   1_565     S
V61     Er6    10.0   1_554     S
V63     Er8    10.0   1_554     S
V63     Er37    10.0   1_565     S
V64     Er38    10.0   1_565     S
