data_eft
_audit_creation_date              2019-12-31
_audit_creation_method            'Pymatgen'
_symmetry_space_group_name_H-M    'P1'
_symmetry_Int_Tables_number       1
loop_
_symmetry_equiv_pos_as_xyz
  x,y,z
_cell_length_a                    23.5702
_cell_length_b                    23.5702
_cell_length_c                    29.8144
_cell_angle_alpha                 90.0
_cell_angle_beta                 90.0
_cell_angle_gamma                 90.0
loop_
_atom_site_label
_atom_site_type_symbol
_atom_site_fract_x
_atom_site_fract_y
_atom_site_fract_z
Ti1     Ti     0.7   0.7   0.0
Ti2     Ti     0.7   0.7   0.5
Ti3     Ti     0.3   0.7   0.0
Ti4     Ti     0.3   0.7   0.5
Ti5     Ti     0.7   0.3   0.0
Ti6     Ti     0.7   0.3   0.5
V7     V     0.0   0.0   0.0
V8     V     0.0   0.0   0.5
Ti9     Ti     0.3   0.3   0.0
Ti10     Ti     0.3   0.3   0.5
Er11     Er     0.5   0.5   0.25
Er12     Er     0.5   0.5   0.75
loop_
_geom_bond_atom_site_label_1
_geom_bond_atom_site_label_2
_geom_bond_distance
_geom_bond_site_symmetry_2
_ccdc_geom_bond_type
Ti1     Er12    10.0   1_554     S
Ti1     Er11    10.0   .     S
Ti1     V7    10.0   1_665     S
Ti2     Er11    10.0   .     S
Ti2     Er12    10.0   .     S
Ti2     V8    10.0   1_665     S
Ti3     Er12    10.0   1_554     S
Ti3     Er11    10.0   .     S
Ti3     V7    10.0   1_565     S
Ti4     Er11    10.0   .     S
Ti4     Er12    10.0   .     S
Ti4     V8    10.0   1_565     S
Ti5     Er12    10.0   1_554     S
Ti5     Er11    10.0   .     S
Ti5     V7    10.0   1_655     S
Ti6     Er11    10.0   .     S
Ti6     Er12    10.0   .     S
Ti6     V8    10.0   1_655     S
V7     Ti1    10.0   1_445     S
V7     Ti3    10.0   1_545     S
V7     Ti5    10.0   1_455     S
V7     Ti9    10.0   .     S
V8     Ti2    10.0   1_445     S
V8     Ti4    10.0   1_545     S
V8     Ti6    10.0   1_455     S
V8     Ti10    10.0   .     S
Ti9     Er12    10.0   1_554     S
Ti9     Er11    10.0   .     S
Ti10     Er11    10.0   .     S
Ti10     Er12    10.0   .     S
Er12     Ti3    10.0   1_556     S
Er12     Ti9    10.0   1_556     S
Er12     Ti5    10.0   1_556     S
Er12     Ti1    10.0   1_556     S
