data_elc
_audit_creation_date              2019-12-31
_audit_creation_method            'Pymatgen'
_symmetry_space_group_name_H-M    'P1'
_symmetry_Int_Tables_number       1
loop_
_symmetry_equiv_pos_as_xyz
  x,y,z
_cell_length_a                    34.6408
_cell_length_b                    30.0003
_cell_length_c                    34.1212
_cell_angle_alpha                 90.0
_cell_angle_beta                 99.5335
_cell_angle_gamma                 90.0
loop_
_atom_site_label
_atom_site_type_symbol
_atom_site_fract_x
_atom_site_fract_y
_atom_site_fract_z
V1     V     0.3531   0.0   0.1213
V2     V     0.3531   0.0   0.6213
V3     V     0.3531   0.3333   0.1213
V4     V     0.3531   0.3333   0.6213
V5     V     0.3531   0.6667   0.1213
V6     V     0.3531   0.6667   0.6213
V7     V     0.8531   0.0   0.1213
V8     V     0.8531   0.0   0.6213
V9     V     0.8531   0.3333   0.1213
V10     V     0.8531   0.3333   0.6213
V11     V     0.8531   0.6667   0.1213
V12     V     0.8531   0.6667   0.6213
V13     V     0.3969   0.1667   0.3787
V14     V     0.3969   0.1667   0.8787
V15     V     0.3969   0.5   0.3787
V16     V     0.3969   0.5   0.8787
V17     V     0.3969   0.8333   0.3787
V18     V     0.3969   0.8333   0.8787
V19     V     0.8969   0.1667   0.3787
V20     V     0.8969   0.1667   0.8787
V21     V     0.8969   0.5   0.3787
V22     V     0.8969   0.5   0.8787
V23     V     0.8969   0.8333   0.3787
V24     V     0.8969   0.8333   0.8787
V25     V     0.1469   0.0   0.3787
V26     V     0.1469   0.0   0.8787
V27     V     0.1469   0.3333   0.3787
V28     V     0.1469   0.3333   0.8787
V29     V     0.1469   0.6667   0.3787
V30     V     0.1469   0.6667   0.8787
V31     V     0.6469   0.0   0.3787
V32     V     0.6469   0.0   0.8787
V33     V     0.6469   0.3333   0.3787
V34     V     0.6469   0.3333   0.8787
V35     V     0.6469   0.6667   0.3787
V36     V     0.6469   0.6667   0.8787
V37     V     0.1031   0.1667   0.1213
V38     V     0.1031   0.1667   0.6213
V39     V     0.1031   0.5   0.1213
V40     V     0.1031   0.5   0.6213
V41     V     0.1031   0.8333   0.1213
V42     V     0.1031   0.8333   0.6213
V43     V     0.6031   0.1667   0.1213
V44     V     0.6031   0.1667   0.6213
V45     V     0.6031   0.5   0.1213
V46     V     0.6031   0.5   0.6213
V47     V     0.6031   0.8333   0.1213
V48     V     0.6031   0.8333   0.6213
loop_
_geom_bond_atom_site_label_1
_geom_bond_atom_site_label_2
_geom_bond_distance
_geom_bond_site_symmetry_2
_ccdc_geom_bond_type
V1     V13    10.0   .     S
V1     V17    10.0   1_545     S
V1     V14    10.0   1_554     S
V1     V18    10.0   1_544     S
V1     V3    10.0   .     S
V1     V5    10.0   1_545     S
V1     V47    10.0   1_545     S
V1     V43    10.0   .     S
V1     V26    10.0   1_554     S
V1     V37    10.0   .     S
V1     V41    10.0   1_545     S
V2     V14    10.0   .     S
V2     V18    10.0   1_545     S
V2     V13    10.0   .     S
V2     V17    10.0   1_545     S
V2     V4    10.0   .     S
V2     V6    10.0   1_545     S
V2     V48    10.0   1_545     S
V2     V44    10.0   .     S
V2     V25    10.0   .     S
V2     V38    10.0   .     S
V2     V42    10.0   1_545     S
V3     V15    10.0   .     S
V3     V13    10.0   .     S
V3     V16    10.0   1_554     S
V3     V14    10.0   1_554     S
V3     V5    10.0   .     S
V3     V43    10.0   .     S
V3     V45    10.0   .     S
V3     V28    10.0   1_554     S
V3     V39    10.0   .     S
V3     V37    10.0   .     S
V4     V16    10.0   .     S
V4     V14    10.0   .     S
V4     V15    10.0   .     S
V4     V13    10.0   .     S
V4     V6    10.0   .     S
V4     V44    10.0   .     S
V4     V46    10.0   .     S
V4     V27    10.0   .     S
V4     V40    10.0   .     S
V4     V38    10.0   .     S
V5     V17    10.0   .     S
V5     V15    10.0   .     S
V5     V18    10.0   1_554     S
V5     V16    10.0   1_554     S
V5     V1    10.0   1_565     S
V5     V45    10.0   .     S
V5     V47    10.0   .     S
V5     V30    10.0   1_554     S
V5     V41    10.0   .     S
V5     V39    10.0   .     S
V6     V18    10.0   .     S
V6     V16    10.0   .     S
V6     V17    10.0   .     S
V6     V15    10.0   .     S
V6     V2    10.0   1_565     S
V6     V46    10.0   .     S
V6     V48    10.0   .     S
V6     V29    10.0   .     S
V6     V42    10.0   .     S
V6     V40    10.0   .     S
V7     V19    10.0   .     S
V7     V23    10.0   1_545     S
V7     V20    10.0   1_554     S
V7     V24    10.0   1_544     S
V7     V9    10.0   .     S
V7     V11    10.0   1_545     S
V7     V41    10.0   1_645     S
V7     V37    10.0   1_655     S
V7     V32    10.0   1_554     S
V7     V43    10.0   .     S
V7     V47    10.0   1_545     S
V8     V20    10.0   .     S
V8     V24    10.0   1_545     S
V8     V19    10.0   .     S
V8     V23    10.0   1_545     S
V8     V10    10.0   .     S
V8     V12    10.0   1_545     S
V8     V42    10.0   1_645     S
V8     V38    10.0   1_655     S
V8     V31    10.0   .     S
V8     V44    10.0   .     S
V8     V48    10.0   1_545     S
V9     V21    10.0   .     S
V9     V19    10.0   .     S
V9     V22    10.0   1_554     S
V9     V20    10.0   1_554     S
V9     V11    10.0   .     S
V9     V37    10.0   1_655     S
V9     V39    10.0   1_655     S
V9     V34    10.0   1_554     S
V9     V45    10.0   .     S
V9     V43    10.0   .     S
V10     V22    10.0   .     S
V10     V20    10.0   .     S
V10     V21    10.0   .     S
V10     V19    10.0   .     S
V10     V12    10.0   .     S
V10     V38    10.0   1_655     S
V10     V40    10.0   1_655     S
V10     V33    10.0   .     S
V10     V46    10.0   .     S
V10     V44    10.0   .     S
V11     V23    10.0   .     S
V11     V21    10.0   .     S
V11     V24    10.0   1_554     S
V11     V22    10.0   1_554     S
V11     V7    10.0   1_565     S
V11     V39    10.0   1_655     S
V11     V41    10.0   1_655     S
V11     V36    10.0   1_554     S
V11     V47    10.0   .     S
V11     V45    10.0   .     S
V12     V24    10.0   .     S
V12     V22    10.0   .     S
V12     V23    10.0   .     S
V12     V21    10.0   .     S
V12     V8    10.0   1_565     S
V12     V40    10.0   1_655     S
V12     V42    10.0   1_655     S
V12     V35    10.0   .     S
V12     V48    10.0   .     S
V12     V46    10.0   .     S
V13     V17    10.0   1_545     S
V13     V15    10.0   .     S
V13     V44    10.0   .     S
V13     V33    10.0   .     S
V13     V31    10.0   .     S
V13     V25    10.0   .     S
V13     V27    10.0   .     S
V14     V1    10.0   1_556     S
V14     V3    10.0   1_556     S
V14     V18    10.0   1_545     S
V14     V16    10.0   .     S
V14     V43    10.0   1_556     S
V14     V34    10.0   .     S
V14     V32    10.0   .     S
V14     V26    10.0   .     S
V14     V28    10.0   .     S
V15     V17    10.0   .     S
V15     V46    10.0   .     S
V15     V35    10.0   .     S
V15     V33    10.0   .     S
V15     V27    10.0   .     S
V15     V29    10.0   .     S
V16     V3    10.0   1_556     S
V16     V5    10.0   1_556     S
V16     V18    10.0   .     S
V16     V45    10.0   1_556     S
V16     V36    10.0   .     S
V16     V34    10.0   .     S
V16     V28    10.0   .     S
V16     V30    10.0   .     S
V17     V1    10.0   1_565     S
V17     V2    10.0   1_565     S
V17     V13    10.0   1_565     S
V17     V48    10.0   .     S
V17     V31    10.0   1_565     S
V17     V35    10.0   .     S
V17     V29    10.0   .     S
V17     V25    10.0   1_565     S
V18     V2    10.0   1_565     S
V18     V5    10.0   1_556     S
V18     V1    10.0   1_566     S
V18     V14    10.0   1_565     S
V18     V47    10.0   1_556     S
V18     V32    10.0   1_565     S
V18     V36    10.0   .     S
V18     V30    10.0   .     S
V18     V26    10.0   1_565     S
V19     V23    10.0   1_545     S
V19     V21    10.0   .     S
V19     V38    10.0   1_655     S
V19     V27    10.0   1_655     S
V19     V25    10.0   1_655     S
V19     V31    10.0   .     S
V19     V33    10.0   .     S
V20     V7    10.0   1_556     S
V20     V9    10.0   1_556     S
V20     V24    10.0   1_545     S
V20     V22    10.0   .     S
V20     V37    10.0   1_656     S
V20     V28    10.0   1_655     S
V20     V26    10.0   1_655     S
V20     V32    10.0   .     S
V20     V34    10.0   .     S
V21     V23    10.0   .     S
V21     V40    10.0   1_655     S
V21     V29    10.0   1_655     S
V21     V27    10.0   1_655     S
V21     V33    10.0   .     S
V21     V35    10.0   .     S
V22     V9    10.0   1_556     S
V22     V11    10.0   1_556     S
V22     V24    10.0   .     S
V22     V39    10.0   1_656     S
V22     V30    10.0   1_655     S
V22     V28    10.0   1_655     S
V22     V34    10.0   .     S
V22     V36    10.0   .     S
V23     V7    10.0   1_565     S
V23     V8    10.0   1_565     S
V23     V19    10.0   1_565     S
V23     V42    10.0   1_655     S
V23     V25    10.0   1_665     S
V23     V29    10.0   1_655     S
V23     V35    10.0   .     S
V23     V31    10.0   1_565     S
V24     V8    10.0   1_565     S
V24     V11    10.0   1_556     S
V24     V7    10.0   1_566     S
V24     V20    10.0   1_565     S
V24     V41    10.0   1_656     S
V24     V26    10.0   1_665     S
V24     V30    10.0   1_655     S
V24     V36    10.0   .     S
V24     V32    10.0   1_565     S
V25     V23    10.0   1_445     S
V25     V19    10.0   1_455     S
V25     V38    10.0   .     S
V25     V42    10.0   1_545     S
V25     V27    10.0   .     S
V25     V29    10.0   1_545     S
V25     V17    10.0   1_545     S
V25     V37    10.0   .     S
V25     V41    10.0   1_545     S
V26     V24    10.0   1_445     S
V26     V20    10.0   1_455     S
V26     V37    10.0   1_556     S
V26     V41    10.0   1_546     S
V26     V28    10.0   .     S
V26     V30    10.0   1_545     S
V26     V1    10.0   1_556     S
V26     V18    10.0   1_545     S
V26     V38    10.0   .     S
V26     V42    10.0   1_545     S
V27     V19    10.0   1_455     S
V27     V21    10.0   1_455     S
V27     V40    10.0   .     S
V27     V38    10.0   .     S
V27     V29    10.0   .     S
V27     V39    10.0   .     S
V27     V37    10.0   .     S
V28     V20    10.0   1_455     S
V28     V22    10.0   1_455     S
V28     V39    10.0   1_556     S
V28     V37    10.0   1_556     S
V28     V30    10.0   .     S
V28     V3    10.0   1_556     S
V28     V40    10.0   .     S
V28     V38    10.0   .     S
V29     V21    10.0   1_455     S
V29     V23    10.0   1_455     S
V29     V42    10.0   .     S
V29     V40    10.0   .     S
V29     V25    10.0   1_565     S
V29     V41    10.0   .     S
V29     V39    10.0   .     S
V30     V22    10.0   1_455     S
V30     V24    10.0   1_455     S
V30     V41    10.0   1_556     S
V30     V39    10.0   1_556     S
V30     V26    10.0   1_565     S
V30     V5    10.0   1_556     S
V30     V42    10.0   .     S
V30     V40    10.0   .     S
V31     V17    10.0   1_545     S
V31     V44    10.0   .     S
V31     V48    10.0   1_545     S
V31     V33    10.0   .     S
V31     V35    10.0   1_545     S
V31     V23    10.0   1_545     S
V31     V43    10.0   .     S
V31     V47    10.0   1_545     S
V32     V18    10.0   1_545     S
V32     V43    10.0   1_556     S
V32     V47    10.0   1_546     S
V32     V34    10.0   .     S
V32     V36    10.0   1_545     S
V32     V7    10.0   1_556     S
V32     V24    10.0   1_545     S
V32     V44    10.0   .     S
V32     V48    10.0   1_545     S
V33     V46    10.0   .     S
V33     V44    10.0   .     S
V33     V35    10.0   .     S
V33     V45    10.0   .     S
V33     V43    10.0   .     S
V34     V45    10.0   1_556     S
V34     V43    10.0   1_556     S
V34     V36    10.0   .     S
V34     V9    10.0   1_556     S
V34     V46    10.0   .     S
V34     V44    10.0   .     S
V35     V48    10.0   .     S
V35     V46    10.0   .     S
V35     V31    10.0   1_565     S
V35     V47    10.0   .     S
V35     V45    10.0   .     S
V36     V47    10.0   1_556     S
V36     V45    10.0   1_556     S
V36     V32    10.0   1_565     S
V36     V11    10.0   1_556     S
V36     V48    10.0   .     S
V36     V46    10.0   .     S
V37     V20    10.0   1_454     S
V37     V9    10.0   1_455     S
V37     V7    10.0   1_455     S
V37     V26    10.0   1_554     S
V37     V28    10.0   1_554     S
V37     V41    10.0   1_545     S
V37     V39    10.0   .     S
V38     V19    10.0   1_455     S
V38     V10    10.0   1_455     S
V38     V8    10.0   1_455     S
V38     V42    10.0   1_545     S
V38     V40    10.0   .     S
V39     V22    10.0   1_454     S
V39     V11    10.0   1_455     S
V39     V9    10.0   1_455     S
V39     V28    10.0   1_554     S
V39     V30    10.0   1_554     S
V39     V41    10.0   .     S
V40     V21    10.0   1_455     S
V40     V12    10.0   1_455     S
V40     V10    10.0   1_455     S
V40     V42    10.0   .     S
V41     V24    10.0   1_454     S
V41     V7    10.0   1_465     S
V41     V11    10.0   1_455     S
V41     V30    10.0   1_554     S
V41     V26    10.0   1_564     S
V41     V37    10.0   1_565     S
V41     V1    10.0   1_565     S
V41     V25    10.0   1_565     S
V42     V23    10.0   1_455     S
V42     V8    10.0   1_465     S
V42     V12    10.0   1_455     S
V42     V25    10.0   1_565     S
V42     V38    10.0   1_565     S
V42     V2    10.0   1_565     S
V42     V26    10.0   1_565     S
V43     V14    10.0   1_554     S
V43     V32    10.0   1_554     S
V43     V34    10.0   1_554     S
V43     V47    10.0   1_545     S
V43     V45    10.0   .     S
V44     V48    10.0   1_545     S
V44     V46    10.0   .     S
V45     V16    10.0   1_554     S
V45     V34    10.0   1_554     S
V45     V36    10.0   1_554     S
V45     V47    10.0   .     S
V46     V48    10.0   .     S
V47     V18    10.0   1_554     S
V47     V1    10.0   1_565     S
V47     V36    10.0   1_554     S
V47     V32    10.0   1_564     S
V47     V43    10.0   1_565     S
V47     V7    10.0   1_565     S
V47     V31    10.0   1_565     S
V48     V2    10.0   1_565     S
V48     V31    10.0   1_565     S
V48     V44    10.0   1_565     S
V48     V8    10.0   1_565     S
V48     V32    10.0   1_565     S
