data_eld
_audit_creation_date              2019-12-31
_audit_creation_method            'Pymatgen'
_symmetry_space_group_name_H-M    'P1'
_symmetry_Int_Tables_number       1
loop_
_symmetry_equiv_pos_as_xyz
  x,y,z
_cell_length_a                    30.0
_cell_length_b                    30.0
_cell_length_c                    50.4751
_cell_angle_alpha                 90.0
_cell_angle_beta                 90.0
_cell_angle_gamma                 120.0
loop_
_atom_site_label
_atom_site_type_symbol
_atom_site_fract_x
_atom_site_fract_y
_atom_site_fract_z
V1     V     0.1657   0.2768   0.5809
V2     V     0.1657   0.6102   0.5809
V3     V     0.1657   0.9435   0.5809
V4     V     0.4991   0.2768   0.5809
V5     V     0.4991   0.6102   0.5809
V6     V     0.4991   0.9435   0.5809
V7     V     0.8324   0.2768   0.5809
V8     V     0.8324   0.6102   0.5809
V9     V     0.8324   0.9435   0.5809
V10     V     0.2768   0.1657   0.4191
V11     V     0.2768   0.4991   0.4191
V12     V     0.2768   0.8324   0.4191
V13     V     0.6102   0.1657   0.4191
V14     V     0.6102   0.4991   0.4191
V15     V     0.6102   0.8324   0.4191
V16     V     0.9435   0.1657   0.4191
V17     V     0.9435   0.4991   0.4191
V18     V     0.9435   0.8324   0.4191
V19     V     0.1676   0.1111   0.7525
V20     V     0.1676   0.4444   0.7525
V21     V     0.1676   0.7778   0.7525
V22     V     0.5009   0.1111   0.7525
V23     V     0.5009   0.4444   0.7525
V24     V     0.5009   0.7778   0.7525
V25     V     0.8343   0.1111   0.7525
V26     V     0.8343   0.4444   0.7525
V27     V     0.8343   0.7778   0.7525
V28     V     0.1111   0.1676   0.2475
V29     V     0.1111   0.5009   0.2475
V30     V     0.1111   0.8343   0.2475
V31     V     0.4444   0.1676   0.2475
V32     V     0.4444   0.5009   0.2475
V33     V     0.4444   0.8343   0.2475
V34     V     0.7778   0.1676   0.2475
V35     V     0.7778   0.5009   0.2475
V36     V     0.7778   0.8343   0.2475
V37     V     0.0565   0.2222   0.9142
V38     V     0.0565   0.5556   0.9142
V39     V     0.0565   0.8889   0.9142
V40     V     0.3898   0.2222   0.9142
V41     V     0.3898   0.5556   0.9142
V42     V     0.3898   0.8889   0.9142
V43     V     0.7232   0.2222   0.9142
V44     V     0.7232   0.5556   0.9142
V45     V     0.7232   0.8889   0.9142
V46     V     0.2222   0.0565   0.0858
V47     V     0.2222   0.3898   0.0858
V48     V     0.2222   0.7232   0.0858
V49     V     0.5556   0.0565   0.0858
V50     V     0.5556   0.3898   0.0858
V51     V     0.5556   0.7232   0.0858
V52     V     0.8889   0.0565   0.0858
V53     V     0.8889   0.3898   0.0858
V54     V     0.8889   0.7232   0.0858
loop_
_geom_bond_atom_site_label_1
_geom_bond_atom_site_label_2
_geom_bond_distance
_geom_bond_site_symmetry_2
_ccdc_geom_bond_type
V1     V3    10.0   1_545     S
V1     V2    10.0   .     S
V1     V20    10.0   .     S
V1     V10    10.0   .     S
V1     V11    10.0   .     S
V1     V5    10.0   .     S
V1     V9    10.0   1_445     S
V1     V4    10.0   .     S
V1     V7    10.0   1_455     S
V1     V16    10.0   1_455     S
V1     V19    10.0   .     S
V2     V3    10.0   .     S
V2     V21    10.0   .     S
V2     V11    10.0   .     S
V2     V12    10.0   .     S
V2     V6    10.0   .     S
V2     V7    10.0   1_455     S
V2     V5    10.0   .     S
V2     V8    10.0   1_455     S
V2     V17    10.0   1_455     S
V2     V20    10.0   .     S
V3     V1    10.0   1_565     S
V3     V19    10.0   1_565     S
V3     V12    10.0   .     S
V3     V10    10.0   1_565     S
V3     V4    10.0   1_565     S
V3     V8    10.0   1_455     S
V3     V6    10.0   .     S
V3     V9    10.0   1_455     S
V3     V18    10.0   1_455     S
V3     V21    10.0   .     S
V4     V6    10.0   1_545     S
V4     V5    10.0   .     S
V4     V23    10.0   .     S
V4     V13    10.0   .     S
V4     V14    10.0   .     S
V4     V3    10.0   1_545     S
V4     V8    10.0   .     S
V4     V7    10.0   .     S
V4     V10    10.0   .     S
V4     V22    10.0   .     S
V5     V6    10.0   .     S
V5     V24    10.0   .     S
V5     V14    10.0   .     S
V5     V15    10.0   .     S
V5     V9    10.0   .     S
V5     V8    10.0   .     S
V5     V11    10.0   .     S
V5     V23    10.0   .     S
V6     V4    10.0   1_565     S
V6     V22    10.0   1_565     S
V6     V15    10.0   .     S
V6     V13    10.0   1_565     S
V6     V7    10.0   1_565     S
V6     V9    10.0   .     S
V6     V12    10.0   .     S
V6     V24    10.0   .     S
V7     V9    10.0   1_545     S
V7     V8    10.0   .     S
V7     V26    10.0   .     S
V7     V16    10.0   .     S
V7     V17    10.0   .     S
V7     V6    10.0   1_545     S
V7     V2    10.0   1_655     S
V7     V1    10.0   1_655     S
V7     V13    10.0   .     S
V7     V25    10.0   .     S
V8     V9    10.0   .     S
V8     V27    10.0   .     S
V8     V17    10.0   .     S
V8     V18    10.0   .     S
V8     V3    10.0   1_655     S
V8     V2    10.0   1_655     S
V8     V14    10.0   .     S
V8     V26    10.0   .     S
V9     V7    10.0   1_565     S
V9     V25    10.0   1_565     S
V9     V18    10.0   .     S
V9     V16    10.0   1_565     S
V9     V1    10.0   1_665     S
V9     V3    10.0   1_655     S
V9     V15    10.0   .     S
V9     V27    10.0   .     S
V10     V3    10.0   1_545     S
V10     V16    10.0   1_455     S
V10     V13    10.0   .     S
V10     V31    10.0   .     S
V10     V18    10.0   1_445     S
V10     V14    10.0   .     S
V10     V11    10.0   .     S
V10     V12    10.0   1_545     S
V10     V28    10.0   .     S
V11     V17    10.0   1_455     S
V11     V14    10.0   .     S
V11     V32    10.0   .     S
V11     V16    10.0   1_455     S
V11     V15    10.0   .     S
V11     V12    10.0   .     S
V11     V29    10.0   .     S
V12     V18    10.0   1_455     S
V12     V15    10.0   .     S
V12     V33    10.0   .     S
V12     V17    10.0   1_455     S
V12     V13    10.0   1_565     S
V12     V10    10.0   1_565     S
V12     V30    10.0   .     S
V13     V6    10.0   1_545     S
V13     V16    10.0   .     S
V13     V34    10.0   .     S
V13     V12    10.0   1_545     S
V13     V17    10.0   .     S
V13     V14    10.0   .     S
V13     V15    10.0   1_545     S
V13     V31    10.0   .     S
V14     V17    10.0   .     S
V14     V35    10.0   .     S
V14     V18    10.0   .     S
V14     V15    10.0   .     S
V14     V32    10.0   .     S
V15     V18    10.0   .     S
V15     V36    10.0   .     S
V15     V16    10.0   1_565     S
V15     V13    10.0   1_565     S
V15     V33    10.0   .     S
V16     V9    10.0   1_545     S
V16     V10    10.0   1_655     S
V16     V28    10.0   1_655     S
V16     V1    10.0   1_655     S
V16     V11    10.0   1_655     S
V16     V15    10.0   1_545     S
V16     V17    10.0   .     S
V16     V18    10.0   1_545     S
V16     V34    10.0   .     S
V17     V11    10.0   1_655     S
V17     V29    10.0   1_655     S
V17     V2    10.0   1_655     S
V17     V12    10.0   1_655     S
V17     V18    10.0   .     S
V17     V35    10.0   .     S
V18     V12    10.0   1_655     S
V18     V30    10.0   1_655     S
V18     V3    10.0   1_655     S
V18     V10    10.0   1_665     S
V18     V16    10.0   1_565     S
V18     V36    10.0   .     S
V19     V3    10.0   1_545     S
V19     V20    10.0   .     S
V19     V21    10.0   1_545     S
V19     V37    10.0   .     S
V19     V25    10.0   1_455     S
V19     V22    10.0   .     S
V19     V27    10.0   1_445     S
V19     V23    10.0   .     S
V19     V40    10.0   .     S
V19     V39    10.0   1_545     S
V20     V21    10.0   .     S
V20     V38    10.0   .     S
V20     V26    10.0   1_455     S
V20     V23    10.0   .     S
V20     V25    10.0   1_455     S
V20     V24    10.0   .     S
V20     V41    10.0   .     S
V20     V37    10.0   .     S
V21     V19    10.0   1_565     S
V21     V39    10.0   .     S
V21     V27    10.0   1_455     S
V21     V24    10.0   .     S
V21     V26    10.0   1_455     S
V21     V22    10.0   1_565     S
V21     V42    10.0   .     S
V21     V38    10.0   .     S
V22     V6    10.0   1_545     S
V22     V23    10.0   .     S
V22     V24    10.0   1_545     S
V22     V40    10.0   .     S
V22     V25    10.0   .     S
V22     V21    10.0   1_545     S
V22     V26    10.0   .     S
V22     V43    10.0   .     S
V22     V42    10.0   1_545     S
V23     V24    10.0   .     S
V23     V41    10.0   .     S
V23     V26    10.0   .     S
V23     V27    10.0   .     S
V23     V44    10.0   .     S
V23     V40    10.0   .     S
V24     V22    10.0   1_565     S
V24     V42    10.0   .     S
V24     V27    10.0   .     S
V24     V25    10.0   1_565     S
V24     V45    10.0   .     S
V24     V41    10.0   .     S
V25     V9    10.0   1_545     S
V25     V26    10.0   .     S
V25     V27    10.0   1_545     S
V25     V43    10.0   .     S
V25     V19    10.0   1_655     S
V25     V20    10.0   1_655     S
V25     V24    10.0   1_545     S
V25     V37    10.0   1_655     S
V25     V45    10.0   1_545     S
V26     V27    10.0   .     S
V26     V44    10.0   .     S
V26     V20    10.0   1_655     S
V26     V21    10.0   1_655     S
V26     V38    10.0   1_655     S
V26     V43    10.0   .     S
V27     V25    10.0   1_565     S
V27     V45    10.0   .     S
V27     V21    10.0   1_655     S
V27     V19    10.0   1_665     S
V27     V39    10.0   1_655     S
V27     V44    10.0   .     S
V28     V16    10.0   1_455     S
V28     V31    10.0   .     S
V28     V34    10.0   1_455     S
V28     V46    10.0   .     S
V28     V52    10.0   1_455     S
V28     V30    10.0   1_545     S
V28     V29    10.0   .     S
V28     V32    10.0   .     S
V28     V36    10.0   1_445     S
V28     V47    10.0   .     S
V29     V17    10.0   1_455     S
V29     V32    10.0   .     S
V29     V35    10.0   1_455     S
V29     V47    10.0   .     S
V29     V53    10.0   1_455     S
V29     V30    10.0   .     S
V29     V33    10.0   .     S
V29     V34    10.0   1_455     S
V29     V48    10.0   .     S
V30     V18    10.0   1_455     S
V30     V33    10.0   .     S
V30     V36    10.0   1_455     S
V30     V48    10.0   .     S
V30     V54    10.0   1_455     S
V30     V28    10.0   1_565     S
V30     V31    10.0   1_565     S
V30     V35    10.0   1_455     S
V30     V46    10.0   1_565     S
V31     V34    10.0   .     S
V31     V49    10.0   .     S
V31     V46    10.0   .     S
V31     V33    10.0   1_545     S
V31     V32    10.0   .     S
V31     V30    10.0   1_545     S
V31     V35    10.0   .     S
V31     V50    10.0   .     S
V32     V35    10.0   .     S
V32     V50    10.0   .     S
V32     V47    10.0   .     S
V32     V33    10.0   .     S
V32     V36    10.0   .     S
V32     V51    10.0   .     S
V33     V36    10.0   .     S
V33     V51    10.0   .     S
V33     V48    10.0   .     S
V33     V31    10.0   1_565     S
V33     V34    10.0   1_565     S
V33     V49    10.0   1_565     S
V34     V28    10.0   1_655     S
V34     V52    10.0   .     S
V34     V49    10.0   .     S
V34     V36    10.0   1_545     S
V34     V35    10.0   .     S
V34     V33    10.0   1_545     S
V34     V29    10.0   1_655     S
V34     V53    10.0   .     S
V35     V29    10.0   1_655     S
V35     V53    10.0   .     S
V35     V50    10.0   .     S
V35     V36    10.0   .     S
V35     V30    10.0   1_655     S
V35     V54    10.0   .     S
V36     V30    10.0   1_655     S
V36     V54    10.0   .     S
V36     V51    10.0   .     S
V36     V34    10.0   1_565     S
V36     V28    10.0   1_665     S
V36     V52    10.0   1_565     S
V37     V52    10.0   1_456     S
V37     V41    10.0   .     S
V37     V45    10.0   1_445     S
V37     V25    10.0   1_455     S
V37     V40    10.0   .     S
V37     V43    10.0   1_455     S
V37     V39    10.0   1_545     S
V37     V38    10.0   .     S
V37     V47    10.0   1_556     S
V38     V53    10.0   1_456     S
V38     V42    10.0   .     S
V38     V43    10.0   1_455     S
V38     V26    10.0   1_455     S
V38     V41    10.0   .     S
V38     V44    10.0   1_455     S
V38     V39    10.0   .     S
V38     V48    10.0   1_556     S
V39     V54    10.0   1_456     S
V39     V40    10.0   1_565     S
V39     V44    10.0   1_455     S
V39     V27    10.0   1_455     S
V39     V19    10.0   1_565     S
V39     V42    10.0   .     S
V39     V45    10.0   1_455     S
V39     V37    10.0   1_565     S
V39     V46    10.0   1_566     S
V40     V46    10.0   1_556     S
V40     V39    10.0   1_545     S
V40     V44    10.0   .     S
V40     V43    10.0   .     S
V40     V42    10.0   1_545     S
V40     V41    10.0   .     S
V40     V50    10.0   1_556     S
V41     V47    10.0   1_556     S
V41     V45    10.0   .     S
V41     V44    10.0   .     S
V41     V42    10.0   .     S
V41     V51    10.0   1_556     S
V42     V48    10.0   1_556     S
V42     V43    10.0   1_565     S
V42     V22    10.0   1_565     S
V42     V45    10.0   .     S
V42     V40    10.0   1_565     S
V42     V49    10.0   1_566     S
V43     V49    10.0   1_556     S
V43     V42    10.0   1_545     S
V43     V38    10.0   1_655     S
V43     V37    10.0   1_655     S
V43     V45    10.0   1_545     S
V43     V44    10.0   .     S
V43     V53    10.0   1_556     S
V44     V50    10.0   1_556     S
V44     V39    10.0   1_655     S
V44     V38    10.0   1_655     S
V44     V45    10.0   .     S
V44     V54    10.0   1_556     S
V45     V51    10.0   1_556     S
V45     V37    10.0   1_665     S
V45     V25    10.0   1_565     S
V45     V39    10.0   1_655     S
V45     V43    10.0   1_565     S
V45     V52    10.0   1_566     S
V46     V40    10.0   1_554     S
V46     V54    10.0   1_445     S
V46     V50    10.0   .     S
V46     V39    10.0   1_544     S
V46     V30    10.0   1_545     S
V46     V47    10.0   .     S
V46     V48    10.0   1_545     S
V46     V52    10.0   1_455     S
V46     V49    10.0   .     S
V47     V41    10.0   1_554     S
V47     V52    10.0   1_455     S
V47     V51    10.0   .     S
V47     V37    10.0   1_554     S
V47     V48    10.0   .     S
V47     V53    10.0   1_455     S
V47     V50    10.0   .     S
V48     V42    10.0   1_554     S
V48     V53    10.0   1_455     S
V48     V49    10.0   1_565     S
V48     V38    10.0   1_554     S
V48     V46    10.0   1_565     S
V48     V54    10.0   1_455     S
V48     V51    10.0   .     S
V49     V43    10.0   1_554     S
V49     V48    10.0   1_545     S
V49     V53    10.0   .     S
V49     V42    10.0   1_544     S
V49     V33    10.0   1_545     S
V49     V50    10.0   .     S
V49     V51    10.0   1_545     S
V49     V52    10.0   .     S
V50     V44    10.0   1_554     S
V50     V54    10.0   .     S
V50     V40    10.0   1_554     S
V50     V51    10.0   .     S
V50     V53    10.0   .     S
V51     V45    10.0   1_554     S
V51     V52    10.0   1_565     S
V51     V41    10.0   1_554     S
V51     V49    10.0   1_565     S
V51     V54    10.0   .     S
V52     V28    10.0   1_655     S
V52     V37    10.0   1_654     S
V52     V47    10.0   1_655     S
V52     V51    10.0   1_545     S
V52     V45    10.0   1_544     S
V52     V36    10.0   1_545     S
V52     V53    10.0   .     S
V52     V54    10.0   1_545     S
V52     V46    10.0   1_655     S
V53     V29    10.0   1_655     S
V53     V38    10.0   1_654     S
V53     V48    10.0   1_655     S
V53     V43    10.0   1_554     S
V53     V54    10.0   .     S
V53     V47    10.0   1_655     S
V54     V30    10.0   1_655     S
V54     V39    10.0   1_654     S
V54     V46    10.0   1_665     S
V54     V44    10.0   1_554     S
V54     V52    10.0   1_565     S
V54     V48    10.0   1_655     S
