data_ele
_audit_creation_date              2019-12-31
_audit_creation_method            'Pymatgen'
_symmetry_space_group_name_H-M    'P1'
_symmetry_Int_Tables_number       1
loop_
_symmetry_equiv_pos_as_xyz
  x,y,z
_cell_length_a                    67.3011
_cell_length_b                    34.6408
_cell_length_c                    30.0
_cell_angle_alpha                 90.0
_cell_angle_beta                 90.0
_cell_angle_gamma                 90.0
loop_
_atom_site_label
_atom_site_type_symbol
_atom_site_fract_x
_atom_site_fract_y
_atom_site_fract_z
V1     V     0.0607   0.3333   0.0
V2     V     0.0607   0.3333   0.3333
V3     V     0.0607   0.3333   0.6667
V4     V     0.0607   0.8333   0.0
V5     V     0.0607   0.8333   0.3333
V6     V     0.0607   0.8333   0.6667
V7     V     0.9393   0.1667   0.0
V8     V     0.9393   0.1667   0.3333
V9     V     0.9393   0.1667   0.6667
V10     V     0.9393   0.6667   0.0
V11     V     0.9393   0.6667   0.3333
V12     V     0.9393   0.6667   0.6667
V13     V     0.0607   0.0833   0.1667
V14     V     0.0607   0.0833   0.5
V15     V     0.0607   0.0833   0.8333
V16     V     0.0607   0.5833   0.1667
V17     V     0.0607   0.5833   0.5
V18     V     0.0607   0.5833   0.8333
V19     V     0.9393   0.4167   0.1667
V20     V     0.9393   0.4167   0.5
V21     V     0.9393   0.4167   0.8333
V22     V     0.9393   0.9167   0.1667
V23     V     0.9393   0.9167   0.5
V24     V     0.9393   0.9167   0.8333
V25     V     0.6893   0.2083   0.0833
V26     V     0.6893   0.2083   0.4167
V27     V     0.6893   0.2083   0.75
V28     V     0.6893   0.7083   0.0833
V29     V     0.6893   0.7083   0.4167
V30     V     0.6893   0.7083   0.75
V31     V     0.8107   0.0417   0.0833
V32     V     0.8107   0.0417   0.4167
V33     V     0.8107   0.0417   0.75
V34     V     0.8107   0.5417   0.0833
V35     V     0.8107   0.5417   0.4167
V36     V     0.8107   0.5417   0.75
V37     V     0.6893   0.4583   0.25
V38     V     0.6893   0.4583   0.5833
V39     V     0.6893   0.4583   0.9167
V40     V     0.6893   0.9583   0.25
V41     V     0.6893   0.9583   0.5833
V42     V     0.6893   0.9583   0.9167
V43     V     0.8107   0.2917   0.25
V44     V     0.8107   0.2917   0.5833
V45     V     0.8107   0.2917   0.9167
V46     V     0.8107   0.7917   0.25
V47     V     0.8107   0.7917   0.5833
V48     V     0.8107   0.7917   0.9167
V49     V     0.5607   0.3333   0.1667
V50     V     0.5607   0.3333   0.5
V51     V     0.5607   0.3333   0.8333
V52     V     0.5607   0.8333   0.1667
V53     V     0.5607   0.8333   0.5
V54     V     0.5607   0.8333   0.8333
V55     V     0.4393   0.1667   0.1667
V56     V     0.4393   0.1667   0.5
V57     V     0.4393   0.1667   0.8333
V58     V     0.4393   0.6667   0.1667
V59     V     0.4393   0.6667   0.5
V60     V     0.4393   0.6667   0.8333
V61     V     0.5607   0.0833   0.0
V62     V     0.5607   0.0833   0.3333
V63     V     0.5607   0.0833   0.6667
V64     V     0.5607   0.5833   0.0
V65     V     0.5607   0.5833   0.3333
V66     V     0.5607   0.5833   0.6667
V67     V     0.4393   0.4167   0.0
V68     V     0.4393   0.4167   0.3333
V69     V     0.4393   0.4167   0.6667
V70     V     0.4393   0.9167   0.0
V71     V     0.4393   0.9167   0.3333
V72     V     0.4393   0.9167   0.6667
V73     V     0.3107   0.0417   0.25
V74     V     0.3107   0.0417   0.5833
V75     V     0.3107   0.0417   0.9167
V76     V     0.3107   0.5417   0.25
V77     V     0.3107   0.5417   0.5833
V78     V     0.3107   0.5417   0.9167
V79     V     0.1893   0.2083   0.25
V80     V     0.1893   0.2083   0.5833
V81     V     0.1893   0.2083   0.9167
V82     V     0.1893   0.7083   0.25
V83     V     0.1893   0.7083   0.5833
V84     V     0.1893   0.7083   0.9167
V85     V     0.3107   0.2917   0.0833
V86     V     0.3107   0.2917   0.4167
V87     V     0.3107   0.2917   0.75
V88     V     0.3107   0.7917   0.0833
V89     V     0.3107   0.7917   0.4167
V90     V     0.3107   0.7917   0.75
V91     V     0.1893   0.4583   0.0833
V92     V     0.1893   0.4583   0.4167
V93     V     0.1893   0.4583   0.75
V94     V     0.1893   0.9583   0.0833
V95     V     0.1893   0.9583   0.4167
V96     V     0.1893   0.9583   0.75
loop_
_geom_bond_atom_site_label_1
_geom_bond_atom_site_label_2
_geom_bond_distance
_geom_bond_site_symmetry_2
_ccdc_geom_bond_type
V1     V18    10.0   1_554     S
V1     V21    10.0   1_454     S
V1     V15    10.0   1_554     S
V1     V13    10.0   .     S
V1     V7    10.0   1_455     S
V1     V16    10.0   .     S
V1     V19    10.0   1_455     S
V1     V2    10.0   .     S
V1     V3    10.0   1_554     S
V1     V91    10.0   .     S
V1     V81    10.0   1_554     S
V2     V16    10.0   .     S
V2     V19    10.0   1_455     S
V2     V13    10.0   .     S
V2     V14    10.0   .     S
V2     V8    10.0   1_455     S
V2     V17    10.0   .     S
V2     V20    10.0   1_455     S
V2     V3    10.0   .     S
V2     V92    10.0   .     S
V2     V79    10.0   .     S
V3     V17    10.0   .     S
V3     V20    10.0   1_455     S
V3     V14    10.0   .     S
V3     V15    10.0   .     S
V3     V9    10.0   1_455     S
V3     V18    10.0   .     S
V3     V21    10.0   1_455     S
V3     V1    10.0   1_556     S
V3     V93    10.0   .     S
V3     V80    10.0   .     S
V4     V15    10.0   1_564     S
V4     V24    10.0   1_454     S
V4     V18    10.0   1_554     S
V4     V16    10.0   .     S
V4     V10    10.0   1_455     S
V4     V13    10.0   1_565     S
V4     V22    10.0   1_455     S
V4     V5    10.0   .     S
V4     V6    10.0   1_554     S
V4     V94    10.0   .     S
V4     V84    10.0   1_554     S
V5     V13    10.0   1_565     S
V5     V22    10.0   1_455     S
V5     V16    10.0   .     S
V5     V17    10.0   .     S
V5     V11    10.0   1_455     S
V5     V14    10.0   1_565     S
V5     V23    10.0   1_455     S
V5     V6    10.0   .     S
V5     V95    10.0   .     S
V5     V82    10.0   .     S
V6     V14    10.0   1_565     S
V6     V23    10.0   1_455     S
V6     V17    10.0   .     S
V6     V18    10.0   .     S
V6     V12    10.0   1_455     S
V6     V15    10.0   1_565     S
V6     V24    10.0   1_455     S
V6     V4    10.0   1_556     S
V6     V96    10.0   .     S
V6     V83    10.0   .     S
V7     V21    10.0   1_554     S
V7     V15    10.0   1_654     S
V7     V24    10.0   1_544     S
V7     V13    10.0   1_655     S
V7     V22    10.0   1_545     S
V7     V1    10.0   1_655     S
V7     V19    10.0   .     S
V7     V8    10.0   .     S
V7     V9    10.0   1_554     S
V7     V45    10.0   1_554     S
V7     V31    10.0   .     S
V8     V19    10.0   .     S
V8     V13    10.0   1_655     S
V8     V22    10.0   1_545     S
V8     V14    10.0   1_655     S
V8     V23    10.0   1_545     S
V8     V2    10.0   1_655     S
V8     V20    10.0   .     S
V8     V9    10.0   .     S
V8     V43    10.0   .     S
V8     V32    10.0   .     S
V9     V20    10.0   .     S
V9     V14    10.0   1_655     S
V9     V23    10.0   1_545     S
V9     V15    10.0   1_655     S
V9     V24    10.0   1_545     S
V9     V3    10.0   1_655     S
V9     V21    10.0   .     S
V9     V7    10.0   1_556     S
V9     V44    10.0   .     S
V9     V33    10.0   .     S
V10     V24    10.0   1_554     S
V10     V18    10.0   1_654     S
V10     V21    10.0   1_554     S
V10     V16    10.0   1_655     S
V10     V19    10.0   .     S
V10     V4    10.0   1_655     S
V10     V22    10.0   .     S
V10     V11    10.0   .     S
V10     V12    10.0   1_554     S
V10     V48    10.0   1_554     S
V10     V34    10.0   .     S
V11     V22    10.0   .     S
V11     V16    10.0   1_655     S
V11     V19    10.0   .     S
V11     V17    10.0   1_655     S
V11     V20    10.0   .     S
V11     V5    10.0   1_655     S
V11     V23    10.0   .     S
V11     V12    10.0   .     S
V11     V46    10.0   .     S
V11     V35    10.0   .     S
V12     V23    10.0   .     S
V12     V17    10.0   1_655     S
V12     V20    10.0   .     S
V12     V18    10.0   1_655     S
V12     V21    10.0   .     S
V12     V6    10.0   1_655     S
V12     V24    10.0   .     S
V12     V10    10.0   1_556     S
V12     V47    10.0   .     S
V12     V36    10.0   .     S
V13     V5    10.0   1_545     S
V13     V8    10.0   1_455     S
V13     V7    10.0   1_455     S
V13     V22    10.0   1_445     S
V13     V4    10.0   1_545     S
V13     V15    10.0   1_554     S
V13     V14    10.0   .     S
V13     V94    10.0   1_545     S
V13     V79    10.0   .     S
V14     V6    10.0   1_545     S
V14     V9    10.0   1_455     S
V14     V8    10.0   1_455     S
V14     V23    10.0   1_445     S
V14     V5    10.0   1_545     S
V14     V15    10.0   .     S
V14     V95    10.0   1_545     S
V14     V80    10.0   .     S
V15     V4    10.0   1_546     S
V15     V1    10.0   1_556     S
V15     V7    10.0   1_456     S
V15     V9    10.0   1_455     S
V15     V24    10.0   1_445     S
V15     V6    10.0   1_545     S
V15     V13    10.0   1_556     S
V15     V96    10.0   1_545     S
V15     V81    10.0   .     S
V16     V11    10.0   1_455     S
V16     V10    10.0   1_455     S
V16     V19    10.0   1_455     S
V16     V18    10.0   1_554     S
V16     V17    10.0   .     S
V16     V91    10.0   .     S
V16     V82    10.0   .     S
V17     V12    10.0   1_455     S
V17     V11    10.0   1_455     S
V17     V20    10.0   1_455     S
V17     V18    10.0   .     S
V17     V92    10.0   .     S
V17     V83    10.0   .     S
V18     V1    10.0   1_556     S
V18     V4    10.0   1_556     S
V18     V10    10.0   1_456     S
V18     V12    10.0   1_455     S
V18     V21    10.0   1_455     S
V18     V16    10.0   1_556     S
V18     V93    10.0   .     S
V18     V84    10.0   .     S
V19     V2    10.0   1_655     S
V19     V16    10.0   1_655     S
V19     V1    10.0   1_655     S
V19     V21    10.0   1_554     S
V19     V20    10.0   .     S
V19     V43    10.0   .     S
V19     V34    10.0   .     S
V20     V3    10.0   1_655     S
V20     V17    10.0   1_655     S
V20     V2    10.0   1_655     S
V20     V21    10.0   .     S
V20     V44    10.0   .     S
V20     V35    10.0   .     S
V21     V1    10.0   1_656     S
V21     V7    10.0   1_556     S
V21     V10    10.0   1_556     S
V21     V18    10.0   1_655     S
V21     V3    10.0   1_655     S
V21     V19    10.0   1_556     S
V21     V45    10.0   .     S
V21     V36    10.0   .     S
V22     V5    10.0   1_655     S
V22     V8    10.0   1_565     S
V22     V7    10.0   1_565     S
V22     V13    10.0   1_665     S
V22     V4    10.0   1_655     S
V22     V24    10.0   1_554     S
V22     V23    10.0   .     S
V22     V46    10.0   .     S
V22     V31    10.0   1_565     S
V23     V6    10.0   1_655     S
V23     V9    10.0   1_565     S
V23     V8    10.0   1_565     S
V23     V14    10.0   1_665     S
V23     V5    10.0   1_655     S
V23     V24    10.0   .     S
V23     V47    10.0   .     S
V23     V32    10.0   1_565     S
V24     V4    10.0   1_656     S
V24     V10    10.0   1_556     S
V24     V7    10.0   1_566     S
V24     V9    10.0   1_565     S
V24     V15    10.0   1_665     S
V24     V6    10.0   1_655     S
V24     V22    10.0   1_556     S
V24     V48    10.0   .     S
V24     V33    10.0   1_565     S
V25     V39    10.0   1_554     S
V25     V45    10.0   1_554     S
V25     V40    10.0   1_545     S
V25     V37    10.0   .     S
V25     V43    10.0   .     S
V25     V31    10.0   .     S
V25     V42    10.0   1_544     S
V25     V26    10.0   .     S
V25     V27    10.0   1_554     S
V25     V49    10.0   .     S
V25     V61    10.0   .     S
V26     V37    10.0   .     S
V26     V43    10.0   .     S
V26     V41    10.0   1_545     S
V26     V38    10.0   .     S
V26     V44    10.0   .     S
V26     V32    10.0   .     S
V26     V40    10.0   1_545     S
V26     V27    10.0   .     S
V26     V50    10.0   .     S
V26     V62    10.0   .     S
V27     V38    10.0   .     S
V27     V44    10.0   .     S
V27     V42    10.0   1_545     S
V27     V39    10.0   .     S
V27     V45    10.0   .     S
V27     V33    10.0   .     S
V27     V41    10.0   1_545     S
V27     V25    10.0   1_556     S
V27     V51    10.0   .     S
V27     V63    10.0   .     S
V28     V42    10.0   1_554     S
V28     V48    10.0   1_554     S
V28     V37    10.0   .     S
V28     V40    10.0   .     S
V28     V46    10.0   .     S
V28     V34    10.0   .     S
V28     V39    10.0   1_554     S
V28     V29    10.0   .     S
V28     V30    10.0   1_554     S
V28     V52    10.0   .     S
V28     V64    10.0   .     S
V29     V40    10.0   .     S
V29     V46    10.0   .     S
V29     V38    10.0   .     S
V29     V41    10.0   .     S
V29     V47    10.0   .     S
V29     V35    10.0   .     S
V29     V37    10.0   .     S
V29     V30    10.0   .     S
V29     V53    10.0   .     S
V29     V65    10.0   .     S
V30     V41    10.0   .     S
V30     V47    10.0   .     S
V30     V39    10.0   .     S
V30     V42    10.0   .     S
V30     V48    10.0   .     S
V30     V36    10.0   .     S
V30     V38    10.0   .     S
V30     V28    10.0   1_556     S
V30     V54    10.0   .     S
V30     V66    10.0   .     S
V31     V22    10.0   1_545     S
V31     V45    10.0   1_554     S
V31     V46    10.0   1_545     S
V31     V40    10.0   1_545     S
V31     V43    10.0   .     S
V31     V42    10.0   1_544     S
V31     V48    10.0   1_544     S
V31     V32    10.0   .     S
V31     V33    10.0   1_554     S
V32     V23    10.0   1_545     S
V32     V43    10.0   .     S
V32     V47    10.0   1_545     S
V32     V41    10.0   1_545     S
V32     V44    10.0   .     S
V32     V40    10.0   1_545     S
V32     V46    10.0   1_545     S
V32     V33    10.0   .     S
V33     V24    10.0   1_545     S
V33     V44    10.0   .     S
V33     V48    10.0   1_545     S
V33     V42    10.0   1_545     S
V33     V45    10.0   .     S
V33     V41    10.0   1_545     S
V33     V47    10.0   1_545     S
V33     V31    10.0   1_556     S
V34     V48    10.0   1_554     S
V34     V43    10.0   .     S
V34     V37    10.0   .     S
V34     V46    10.0   .     S
V34     V39    10.0   1_554     S
V34     V45    10.0   1_554     S
V34     V35    10.0   .     S
V34     V36    10.0   1_554     S
V35     V46    10.0   .     S
V35     V44    10.0   .     S
V35     V38    10.0   .     S
V35     V47    10.0   .     S
V35     V37    10.0   .     S
V35     V43    10.0   .     S
V35     V36    10.0   .     S
V36     V47    10.0   .     S
V36     V45    10.0   .     S
V36     V39    10.0   .     S
V36     V48    10.0   .     S
V36     V38    10.0   .     S
V36     V44    10.0   .     S
V36     V34    10.0   1_556     S
V37     V43    10.0   .     S
V37     V39    10.0   1_554     S
V37     V38    10.0   .     S
V37     V49    10.0   .     S
V37     V65    10.0   .     S
V38     V44    10.0   .     S
V38     V39    10.0   .     S
V38     V50    10.0   .     S
V38     V66    10.0   .     S
V39     V25    10.0   1_556     S
V39     V45    10.0   .     S
V39     V28    10.0   1_556     S
V39     V34    10.0   1_556     S
V39     V37    10.0   1_556     S
V39     V51    10.0   .     S
V39     V64    10.0   1_556     S
V40     V31    10.0   1_565     S
V40     V25    10.0   1_565     S
V40     V46    10.0   .     S
V40     V26    10.0   1_565     S
V40     V32    10.0   1_565     S
V40     V42    10.0   1_554     S
V40     V41    10.0   .     S
V40     V52    10.0   .     S
V40     V62    10.0   1_565     S
V41     V32    10.0   1_565     S
V41     V26    10.0   1_565     S
V41     V47    10.0   .     S
V41     V27    10.0   1_565     S
V41     V33    10.0   1_565     S
V41     V42    10.0   .     S
V41     V53    10.0   .     S
V41     V63    10.0   1_565     S
V42     V28    10.0   1_556     S
V42     V33    10.0   1_565     S
V42     V27    10.0   1_565     S
V42     V48    10.0   .     S
V42     V25    10.0   1_566     S
V42     V31    10.0   1_566     S
V42     V40    10.0   1_556     S
V42     V54    10.0   .     S
V42     V61    10.0   1_566     S
V43     V45    10.0   1_554     S
V43     V44    10.0   .     S
V44     V45    10.0   .     S
V45     V7    10.0   1_556     S
V45     V25    10.0   1_556     S
V45     V31    10.0   1_556     S
V45     V34    10.0   1_556     S
V45     V43    10.0   1_556     S
V46     V31    10.0   1_565     S
V46     V32    10.0   1_565     S
V46     V48    10.0   1_554     S
V46     V47    10.0   .     S
V47     V32    10.0   1_565     S
V47     V33    10.0   1_565     S
V47     V48    10.0   .     S
V48     V10    10.0   1_556     S
V48     V28    10.0   1_556     S
V48     V34    10.0   1_556     S
V48     V33    10.0   1_565     S
V48     V31    10.0   1_566     S
V48     V46    10.0   1_556     S
V49     V67    10.0   .     S
V49     V64    10.0   .     S
V49     V61    10.0   .     S
V49     V62    10.0   .     S
V49     V55    10.0   .     S
V49     V65    10.0   .     S
V49     V68    10.0   .     S
V49     V51    10.0   1_554     S
V49     V50    10.0   .     S
V50     V68    10.0   .     S
V50     V65    10.0   .     S
V50     V62    10.0   .     S
V50     V63    10.0   .     S
V50     V56    10.0   .     S
V50     V66    10.0   .     S
V50     V69    10.0   .     S
V50     V51    10.0   .     S
V51     V69    10.0   .     S
V51     V66    10.0   .     S
V51     V63    10.0   .     S
V51     V61    10.0   1_556     S
V51     V57    10.0   .     S
V51     V64    10.0   1_556     S
V51     V67    10.0   1_556     S
V51     V49    10.0   1_556     S
V52     V70    10.0   .     S
V52     V61    10.0   1_565     S
V52     V64    10.0   .     S
V52     V65    10.0   .     S
V52     V58    10.0   .     S
V52     V62    10.0   1_565     S
V52     V71    10.0   .     S
V52     V54    10.0   1_554     S
V52     V53    10.0   .     S
V53     V71    10.0   .     S
V53     V62    10.0   1_565     S
V53     V65    10.0   .     S
V53     V66    10.0   .     S
V53     V59    10.0   .     S
V53     V63    10.0   1_565     S
V53     V72    10.0   .     S
V53     V54    10.0   .     S
V54     V72    10.0   .     S
V54     V63    10.0   1_565     S
V54     V66    10.0   .     S
V54     V64    10.0   1_556     S
V54     V60    10.0   .     S
V54     V61    10.0   1_566     S
V54     V70    10.0   1_556     S
V54     V52    10.0   1_556     S
V55     V67    10.0   .     S
V55     V61    10.0   .     S
V55     V70    10.0   1_545     S
V55     V71    10.0   1_545     S
V55     V62    10.0   .     S
V55     V68    10.0   .     S
V55     V57    10.0   1_554     S
V55     V56    10.0   .     S
V55     V85    10.0   .     S
V55     V73    10.0   .     S
V56     V68    10.0   .     S
V56     V62    10.0   .     S
V56     V71    10.0   1_545     S
V56     V72    10.0   1_545     S
V56     V63    10.0   .     S
V56     V69    10.0   .     S
V56     V57    10.0   .     S
V56     V86    10.0   .     S
V56     V74    10.0   .     S
V57     V69    10.0   .     S
V57     V63    10.0   .     S
V57     V72    10.0   1_545     S
V57     V70    10.0   1_546     S
V57     V61    10.0   1_556     S
V57     V67    10.0   1_556     S
V57     V55    10.0   1_556     S
V57     V87    10.0   .     S
V57     V75    10.0   .     S
V58     V70    10.0   .     S
V58     V64    10.0   .     S
V58     V67    10.0   .     S
V58     V68    10.0   .     S
V58     V65    10.0   .     S
V58     V71    10.0   .     S
V58     V60    10.0   1_554     S
V58     V59    10.0   .     S
V58     V88    10.0   .     S
V58     V76    10.0   .     S
V59     V71    10.0   .     S
V59     V65    10.0   .     S
V59     V68    10.0   .     S
V59     V69    10.0   .     S
V59     V66    10.0   .     S
V59     V72    10.0   .     S
V59     V60    10.0   .     S
V59     V89    10.0   .     S
V59     V77    10.0   .     S
V60     V72    10.0   .     S
V60     V66    10.0   .     S
V60     V69    10.0   .     S
V60     V67    10.0   1_556     S
V60     V64    10.0   1_556     S
V60     V70    10.0   1_556     S
V60     V58    10.0   1_556     S
V60     V90    10.0   .     S
V60     V78    10.0   .     S
V61     V42    10.0   1_544     S
V61     V52    10.0   1_545     S
V61     V57    10.0   1_554     S
V61     V51    10.0   1_554     S
V61     V70    10.0   1_545     S
V61     V54    10.0   1_544     S
V61     V62    10.0   .     S
V61     V63    10.0   1_554     S
V62     V40    10.0   1_545     S
V62     V53    10.0   1_545     S
V62     V71    10.0   1_545     S
V62     V52    10.0   1_545     S
V62     V63    10.0   .     S
V63     V41    10.0   1_545     S
V63     V54    10.0   1_545     S
V63     V72    10.0   1_545     S
V63     V53    10.0   1_545     S
V63     V61    10.0   1_556     S
V64     V39    10.0   1_554     S
V64     V60    10.0   1_554     S
V64     V54    10.0   1_554     S
V64     V67    10.0   .     S
V64     V51    10.0   1_554     S
V64     V65    10.0   .     S
V64     V66    10.0   1_554     S
V65     V68    10.0   .     S
V65     V66    10.0   .     S
V66     V69    10.0   .     S
V66     V64    10.0   1_556     S
V67     V60    10.0   1_554     S
V67     V51    10.0   1_554     S
V67     V57    10.0   1_554     S
V67     V68    10.0   .     S
V67     V69    10.0   1_554     S
V67     V85    10.0   .     S
V67     V78    10.0   1_554     S
V68     V69    10.0   .     S
V68     V86    10.0   .     S
V68     V76    10.0   .     S
V69     V67    10.0   1_556     S
V69     V87    10.0   .     S
V69     V77    10.0   .     S
V70     V55    10.0   1_565     S
V70     V57    10.0   1_564     S
V70     V61    10.0   1_565     S
V70     V54    10.0   1_554     S
V70     V60    10.0   1_554     S
V70     V71    10.0   .     S
V70     V72    10.0   1_554     S
V70     V88    10.0   .     S
V70     V75    10.0   1_564     S
V71     V56    10.0   1_565     S
V71     V55    10.0   1_565     S
V71     V62    10.0   1_565     S
V71     V72    10.0   .     S
V71     V89    10.0   .     S
V71     V73    10.0   1_565     S
V72     V57    10.0   1_565     S
V72     V56    10.0   1_565     S
V72     V63    10.0   1_565     S
V72     V70    10.0   1_556     S
V72     V90    10.0   .     S
V72     V74    10.0   1_565     S
V73     V71    10.0   1_545     S
V73     V86    10.0   .     S
V73     V88    10.0   1_545     S
V73     V94    10.0   1_545     S
V73     V85    10.0   .     S
V73     V79    10.0   .     S
V73     V89    10.0   1_545     S
V73     V95    10.0   1_545     S
V73     V75    10.0   1_554     S
V73     V74    10.0   .     S
V74     V72    10.0   1_545     S
V74     V87    10.0   .     S
V74     V89    10.0   1_545     S
V74     V95    10.0   1_545     S
V74     V86    10.0   .     S
V74     V80    10.0   .     S
V74     V90    10.0   1_545     S
V74     V96    10.0   1_545     S
V74     V75    10.0   .     S
V75     V70    10.0   1_546     S
V75     V85    10.0   1_556     S
V75     V90    10.0   1_545     S
V75     V96    10.0   1_545     S
V75     V87    10.0   .     S
V75     V81    10.0   .     S
V75     V88    10.0   1_546     S
V75     V94    10.0   1_546     S
V75     V73    10.0   1_556     S
V76     V89    10.0   .     S
V76     V85    10.0   .     S
V76     V91    10.0   .     S
V76     V88    10.0   .     S
V76     V82    10.0   .     S
V76     V86    10.0   .     S
V76     V92    10.0   .     S
V76     V78    10.0   1_554     S
V76     V77    10.0   .     S
V77     V90    10.0   .     S
V77     V86    10.0   .     S
V77     V92    10.0   .     S
V77     V89    10.0   .     S
V77     V83    10.0   .     S
V77     V87    10.0   .     S
V77     V93    10.0   .     S
V77     V78    10.0   .     S
V78     V67    10.0   1_556     S
V78     V88    10.0   1_556     S
V78     V87    10.0   .     S
V78     V93    10.0   .     S
V78     V90    10.0   .     S
V78     V84    10.0   .     S
V78     V85    10.0   1_556     S
V78     V91    10.0   1_556     S
V78     V76    10.0   1_556     S
V79     V86    10.0   .     S
V79     V92    10.0   .     S
V79     V94    10.0   1_545     S
V79     V85    10.0   .     S
V79     V91    10.0   .     S
V79     V95    10.0   1_545     S
V79     V81    10.0   1_554     S
V79     V80    10.0   .     S
V80     V87    10.0   .     S
V80     V93    10.0   .     S
V80     V95    10.0   1_545     S
V80     V86    10.0   .     S
V80     V92    10.0   .     S
V80     V96    10.0   1_545     S
V80     V81    10.0   .     S
V81     V1    10.0   1_556     S
V81     V85    10.0   1_556     S
V81     V91    10.0   1_556     S
V81     V96    10.0   1_545     S
V81     V87    10.0   .     S
V81     V93    10.0   .     S
V81     V94    10.0   1_546     S
V81     V79    10.0   1_556     S
V82     V89    10.0   .     S
V82     V95    10.0   .     S
V82     V91    10.0   .     S
V82     V88    10.0   .     S
V82     V94    10.0   .     S
V82     V92    10.0   .     S
V82     V84    10.0   1_554     S
V82     V83    10.0   .     S
V83     V90    10.0   .     S
V83     V96    10.0   .     S
V83     V92    10.0   .     S
V83     V89    10.0   .     S
V83     V95    10.0   .     S
V83     V93    10.0   .     S
V83     V84    10.0   .     S
V84     V4    10.0   1_556     S
V84     V88    10.0   1_556     S
V84     V94    10.0   1_556     S
V84     V93    10.0   .     S
V84     V90    10.0   .     S
V84     V96    10.0   .     S
V84     V91    10.0   1_556     S
V84     V82    10.0   1_556     S
V85     V75    10.0   1_554     S
V85     V81    10.0   1_554     S
V85     V91    10.0   .     S
V85     V78    10.0   1_554     S
V85     V86    10.0   .     S
V85     V87    10.0   1_554     S
V86     V92    10.0   .     S
V86     V87    10.0   .     S
V87     V93    10.0   .     S
V87     V85    10.0   1_556     S
V88     V78    10.0   1_554     S
V88     V84    10.0   1_554     S
V88     V73    10.0   1_565     S
V88     V94    10.0   .     S
V88     V75    10.0   1_564     S
V88     V89    10.0   .     S
V88     V90    10.0   1_554     S
V89     V74    10.0   1_565     S
V89     V95    10.0   .     S
V89     V73    10.0   1_565     S
V89     V90    10.0   .     S
V90     V75    10.0   1_565     S
V90     V96    10.0   .     S
V90     V74    10.0   1_565     S
V90     V88    10.0   1_556     S
V91     V81    10.0   1_554     S
V91     V78    10.0   1_554     S
V91     V84    10.0   1_554     S
V91     V92    10.0   .     S
V91     V93    10.0   1_554     S
V92     V93    10.0   .     S
V93     V91    10.0   1_556     S
V94     V13    10.0   1_565     S
V94     V84    10.0   1_554     S
V94     V73    10.0   1_565     S
V94     V79    10.0   1_565     S
V94     V75    10.0   1_564     S
V94     V81    10.0   1_564     S
V94     V95    10.0   .     S
V94     V96    10.0   1_554     S
V95     V14    10.0   1_565     S
V95     V74    10.0   1_565     S
V95     V80    10.0   1_565     S
V95     V73    10.0   1_565     S
V95     V79    10.0   1_565     S
V95     V96    10.0   .     S
V96     V15    10.0   1_565     S
V96     V75    10.0   1_565     S
V96     V81    10.0   1_565     S
V96     V74    10.0   1_565     S
V96     V80    10.0   1_565     S
V96     V94    10.0   1_556     S
