data_elf
_audit_creation_date              2019-12-31
_audit_creation_method            'Pymatgen'
_symmetry_space_group_name_H-M    'P1'
_symmetry_Int_Tables_number       1
loop_
_symmetry_equiv_pos_as_xyz
  x,y,z
_cell_length_a                    30.0
_cell_length_b                    30.0
_cell_length_c                    100.9514
_cell_angle_alpha                 90.0
_cell_angle_beta                 90.0
_cell_angle_gamma                 120.0
loop_
_atom_site_label
_atom_site_type_symbol
_atom_site_fract_x
_atom_site_fract_y
_atom_site_fract_z
V1     V     0.0556   0.2778   0.7071
V2     V     0.0556   0.6111   0.7071
V3     V     0.0556   0.9444   0.7071
V4     V     0.3889   0.2778   0.7071
V5     V     0.3889   0.6111   0.7071
V6     V     0.3889   0.9444   0.7071
V7     V     0.7222   0.2778   0.7071
V8     V     0.7222   0.6111   0.7071
V9     V     0.7222   0.9444   0.7071
V10     V     0.2222   0.2778   0.7929
V11     V     0.2222   0.6111   0.7929
V12     V     0.2222   0.9444   0.7929
V13     V     0.5556   0.2778   0.7929
V14     V     0.5556   0.6111   0.7929
V15     V     0.5556   0.9444   0.7929
V16     V     0.8889   0.2778   0.7929
V17     V     0.8889   0.6111   0.7929
V18     V     0.8889   0.9444   0.7929
V19     V     0.2778   0.2222   0.5404
V20     V     0.2778   0.5556   0.5404
V21     V     0.2778   0.8889   0.5404
V22     V     0.6111   0.2222   0.5404
V23     V     0.6111   0.5556   0.5404
V24     V     0.6111   0.8889   0.5404
V25     V     0.9444   0.2222   0.5404
V26     V     0.9444   0.5556   0.5404
V27     V     0.9444   0.8889   0.5404
V28     V     0.2778   0.0556   0.6262
V29     V     0.2778   0.3889   0.6262
V30     V     0.2778   0.7222   0.6262
V31     V     0.6111   0.0556   0.6262
V32     V     0.6111   0.3889   0.6262
V33     V     0.6111   0.7222   0.6262
V34     V     0.9445   0.0556   0.6262
V35     V     0.9444   0.3889   0.6262
V36     V     0.9444   0.7222   0.6262
V37     V     0.2222   0.2778   0.3738
V38     V     0.2222   0.6111   0.3738
V39     V     0.2222   0.9444   0.3738
V40     V     0.5556   0.2778   0.3738
V41     V     0.5556   0.6111   0.3738
V42     V     0.5556   0.9444   0.3738
V43     V     0.8889   0.2778   0.3738
V44     V     0.8889   0.6111   0.3738
V45     V     0.8889   0.9444   0.3738
V46     V     0.0556   0.1111   0.4596
V47     V     0.0556   0.4444   0.4596
V48     V     0.0556   0.7778   0.4596
V49     V     0.3889   0.1111   0.4596
V50     V     0.3889   0.4444   0.4596
V51     V     0.3889   0.7778   0.4596
V52     V     0.7222   0.1111   0.4596
V53     V     0.7222   0.4444   0.4596
V54     V     0.7222   0.7778   0.4596
V55     V     0.1111   0.0556   0.2929
V56     V     0.1111   0.3889   0.2929
V57     V     0.1111   0.7222   0.2929
V58     V     0.4444   0.0556   0.2929
V59     V     0.4444   0.3889   0.2929
V60     V     0.4444   0.7222   0.2929
V61     V     0.7778   0.0556   0.2929
V62     V     0.7778   0.3889   0.2929
V63     V     0.7778   0.7222   0.2929
V64     V     0.2778   0.0556   0.2071
V65     V     0.2778   0.3889   0.2071
V66     V     0.2778   0.7222   0.2071
V67     V     0.6111   0.0556   0.2071
V68     V     0.6111   0.3889   0.2071
V69     V     0.6111   0.7222   0.2071
V70     V     0.9444   0.0556   0.2071
V71     V     0.9444   0.3889   0.2071
V72     V     0.9444   0.7222   0.2071
V73     V     0.2778   0.2222   0.9596
V74     V     0.2778   0.5556   0.9596
V75     V     0.2778   0.8889   0.9596
V76     V     0.6111   0.2222   0.9596
V77     V     0.6111   0.5556   0.9596
V78     V     0.6111   0.8889   0.9596
V79     V     0.9444   0.2222   0.9596
V80     V     0.9444   0.5556   0.9596
V81     V     0.9444   0.8889   0.9596
V82     V     0.1111   0.0556   0.8738
V83     V     0.1111   0.3889   0.8738
V84     V     0.1111   0.7222   0.8738
V85     V     0.4444   0.0556   0.8738
V86     V     0.4444   0.3889   0.8738
V87     V     0.4444   0.7222   0.8738
V88     V     0.7778   0.0556   0.8738
V89     V     0.7778   0.3889   0.8738
V90     V     0.7778   0.7222   0.8738
V91     V     0.0556   0.2778   0.1262
V92     V     0.0555   0.6111   0.1262
V93     V     0.0555   0.9444   0.1262
V94     V     0.3889   0.2778   0.1262
V95     V     0.3889   0.6111   0.1262
V96     V     0.3889   0.9444   0.1262
V97     V     0.7222   0.2778   0.1262
V98     V     0.7222   0.6111   0.1262
V99     V     0.7222   0.9444   0.1262
V100     V     0.0556   0.1111   0.0404
V101     V     0.0555   0.4444   0.0404
V102     V     0.0555   0.7778   0.0404
V103     V     0.3889   0.1111   0.0404
V104     V     0.3889   0.4444   0.0404
V105     V     0.3889   0.7778   0.0404
V106     V     0.7222   0.1111   0.0404
V107     V     0.7222   0.4444   0.0404
V108     V     0.7222   0.7778   0.0404
loop_
_geom_bond_atom_site_label_1
_geom_bond_atom_site_label_2
_geom_bond_distance
_geom_bond_site_symmetry_2
_ccdc_geom_bond_type
V1     V10    10.0   .     S
V1     V16    10.0   1_455     S
V1     V4    10.0   .     S
V1     V7    10.0   1_455     S
V1     V29    10.0   .     S
V1     V35    10.0   1_455     S
V1     V34    10.0   1_455     S
V1     V3    10.0   1_545     S
V1     V2    10.0   .     S
V1     V5    10.0   .     S
V1     V9    10.0   1_445     S
V2     V11    10.0   .     S
V2     V17    10.0   1_455     S
V2     V5    10.0   .     S
V2     V8    10.0   1_455     S
V2     V30    10.0   .     S
V2     V36    10.0   1_455     S
V2     V35    10.0   1_455     S
V2     V3    10.0   .     S
V2     V6    10.0   .     S
V2     V7    10.0   1_455     S
V3     V12    10.0   .     S
V3     V18    10.0   1_455     S
V3     V6    10.0   .     S
V3     V9    10.0   1_455     S
V3     V28    10.0   1_565     S
V3     V34    10.0   1_465     S
V3     V36    10.0   1_455     S
V3     V1    10.0   1_565     S
V3     V4    10.0   1_565     S
V3     V8    10.0   1_455     S
V4     V13    10.0   .     S
V4     V10    10.0   .     S
V4     V7    10.0   .     S
V4     V32    10.0   .     S
V4     V29    10.0   .     S
V4     V28    10.0   .     S
V4     V6    10.0   1_545     S
V4     V5    10.0   .     S
V4     V3    10.0   1_545     S
V4     V8    10.0   .     S
V5     V14    10.0   .     S
V5     V11    10.0   .     S
V5     V8    10.0   .     S
V5     V33    10.0   .     S
V5     V30    10.0   .     S
V5     V29    10.0   .     S
V5     V6    10.0   .     S
V5     V9    10.0   .     S
V6     V15    10.0   .     S
V6     V12    10.0   .     S
V6     V9    10.0   .     S
V6     V31    10.0   1_565     S
V6     V28    10.0   1_565     S
V6     V30    10.0   .     S
V6     V4    10.0   1_565     S
V6     V7    10.0   1_565     S
V7     V16    10.0   .     S
V7     V13    10.0   .     S
V7     V1    10.0   1_655     S
V7     V35    10.0   .     S
V7     V32    10.0   .     S
V7     V31    10.0   .     S
V7     V9    10.0   1_545     S
V7     V8    10.0   .     S
V7     V6    10.0   1_545     S
V7     V2    10.0   1_655     S
V8     V17    10.0   .     S
V8     V14    10.0   .     S
V8     V2    10.0   1_655     S
V8     V36    10.0   .     S
V8     V33    10.0   .     S
V8     V32    10.0   .     S
V8     V9    10.0   .     S
V8     V3    10.0   1_655     S
V9     V18    10.0   .     S
V9     V15    10.0   .     S
V9     V3    10.0   1_655     S
V9     V34    10.0   1_565     S
V9     V31    10.0   1_565     S
V9     V33    10.0   .     S
V9     V7    10.0   1_565     S
V9     V1    10.0   1_665     S
V10     V16    10.0   1_455     S
V10     V13    10.0   .     S
V10     V83    10.0   .     S
V10     V86    10.0   .     S
V10     V82    10.0   .     S
V10     V12    10.0   1_545     S
V10     V11    10.0   .     S
V10     V18    10.0   1_445     S
V10     V14    10.0   .     S
V11     V17    10.0   1_455     S
V11     V14    10.0   .     S
V11     V84    10.0   .     S
V11     V87    10.0   .     S
V11     V83    10.0   .     S
V11     V12    10.0   .     S
V11     V16    10.0   1_455     S
V11     V15    10.0   .     S
V12     V18    10.0   1_455     S
V12     V15    10.0   .     S
V12     V82    10.0   1_565     S
V12     V85    10.0   1_565     S
V12     V84    10.0   .     S
V12     V10    10.0   1_565     S
V12     V17    10.0   1_455     S
V12     V13    10.0   1_565     S
V13     V16    10.0   .     S
V13     V86    10.0   .     S
V13     V89    10.0   .     S
V13     V85    10.0   .     S
V13     V15    10.0   1_545     S
V13     V14    10.0   .     S
V13     V12    10.0   1_545     S
V13     V17    10.0   .     S
V14     V17    10.0   .     S
V14     V87    10.0   .     S
V14     V90    10.0   .     S
V14     V86    10.0   .     S
V14     V15    10.0   .     S
V14     V18    10.0   .     S
V15     V18    10.0   .     S
V15     V85    10.0   1_565     S
V15     V88    10.0   1_565     S
V15     V87    10.0   .     S
V15     V13    10.0   1_565     S
V15     V16    10.0   1_565     S
V16     V1    10.0   1_655     S
V16     V10    10.0   1_655     S
V16     V89    10.0   .     S
V16     V83    10.0   1_655     S
V16     V88    10.0   .     S
V16     V18    10.0   1_545     S
V16     V17    10.0   .     S
V16     V11    10.0   1_655     S
V16     V15    10.0   1_545     S
V17     V2    10.0   1_655     S
V17     V11    10.0   1_655     S
V17     V90    10.0   .     S
V17     V84    10.0   1_655     S
V17     V89    10.0   .     S
V17     V18    10.0   .     S
V17     V12    10.0   1_655     S
V18     V3    10.0   1_655     S
V18     V12    10.0   1_655     S
V18     V88    10.0   1_565     S
V18     V82    10.0   1_665     S
V18     V90    10.0   .     S
V18     V16    10.0   1_565     S
V18     V10    10.0   1_665     S
V19     V28    10.0   .     S
V19     V29    10.0   .     S
V19     V21    10.0   1_545     S
V19     V20    10.0   .     S
V19     V46    10.0   .     S
V19     V50    10.0   .     S
V19     V49    10.0   .     S
V19     V25    10.0   1_455     S
V19     V22    10.0   .     S
V19     V27    10.0   1_445     S
V19     V23    10.0   .     S
V20     V29    10.0   .     S
V20     V30    10.0   .     S
V20     V21    10.0   .     S
V20     V47    10.0   .     S
V20     V51    10.0   .     S
V20     V50    10.0   .     S
V20     V26    10.0   1_455     S
V20     V23    10.0   .     S
V20     V25    10.0   1_455     S
V20     V24    10.0   .     S
V21     V30    10.0   .     S
V21     V28    10.0   1_565     S
V21     V19    10.0   1_565     S
V21     V48    10.0   .     S
V21     V49    10.0   1_565     S
V21     V51    10.0   .     S
V21     V27    10.0   1_455     S
V21     V24    10.0   .     S
V21     V26    10.0   1_455     S
V21     V22    10.0   1_565     S
V22     V31    10.0   .     S
V22     V32    10.0   .     S
V22     V24    10.0   1_545     S
V22     V23    10.0   .     S
V22     V49    10.0   .     S
V22     V53    10.0   .     S
V22     V52    10.0   .     S
V22     V25    10.0   .     S
V22     V21    10.0   1_545     S
V22     V26    10.0   .     S
V23     V32    10.0   .     S
V23     V33    10.0   .     S
V23     V24    10.0   .     S
V23     V50    10.0   .     S
V23     V54    10.0   .     S
V23     V53    10.0   .     S
V23     V26    10.0   .     S
V23     V27    10.0   .     S
V24     V33    10.0   .     S
V24     V31    10.0   1_565     S
V24     V22    10.0   1_565     S
V24     V51    10.0   .     S
V24     V52    10.0   1_565     S
V24     V54    10.0   .     S
V24     V27    10.0   .     S
V24     V25    10.0   1_565     S
V25     V34    10.0   .     S
V25     V35    10.0   .     S
V25     V27    10.0   1_545     S
V25     V26    10.0   .     S
V25     V52    10.0   .     S
V25     V47    10.0   1_655     S
V25     V46    10.0   1_655     S
V25     V19    10.0   1_655     S
V25     V20    10.0   1_655     S
V25     V24    10.0   1_545     S
V26     V35    10.0   .     S
V26     V36    10.0   .     S
V26     V27    10.0   .     S
V26     V53    10.0   .     S
V26     V48    10.0   1_655     S
V26     V47    10.0   1_655     S
V26     V20    10.0   1_655     S
V26     V21    10.0   1_655     S
V27     V36    10.0   .     S
V27     V34    10.0   1_565     S
V27     V25    10.0   1_565     S
V27     V54    10.0   .     S
V27     V46    10.0   1_665     S
V27     V48    10.0   1_655     S
V27     V21    10.0   1_655     S
V27     V19    10.0   1_665     S
V28     V3    10.0   1_545     S
V28     V34    10.0   1_455     S
V28     V31    10.0   .     S
V28     V21    10.0   1_545     S
V28     V29    10.0   .     S
V28     V30    10.0   1_545     S
V28     V6    10.0   1_545     S
V28     V36    10.0   1_445     S
V28     V32    10.0   .     S
V29     V35    10.0   1_455     S
V29     V32    10.0   .     S
V29     V30    10.0   .     S
V29     V34    10.0   1_455     S
V29     V33    10.0   .     S
V30     V36    10.0   1_455     S
V30     V33    10.0   .     S
V30     V28    10.0   1_565     S
V30     V35    10.0   1_455     S
V30     V31    10.0   1_565     S
V31     V6    10.0   1_545     S
V31     V34    10.0   .     S
V31     V24    10.0   1_545     S
V31     V32    10.0   .     S
V31     V33    10.0   1_545     S
V31     V9    10.0   1_545     S
V31     V30    10.0   1_545     S
V31     V35    10.0   .     S
V32     V35    10.0   .     S
V32     V33    10.0   .     S
V32     V36    10.0   .     S
V33     V36    10.0   .     S
V33     V31    10.0   1_565     S
V33     V34    10.0   1_565     S
V34     V9    10.0   1_545     S
V34     V28    10.0   1_655     S
V34     V27    10.0   1_545     S
V34     V35    10.0   .     S
V34     V36    10.0   1_545     S
V34     V3    10.0   1_645     S
V34     V1    10.0   1_655     S
V34     V29    10.0   1_655     S
V34     V33    10.0   1_545     S
V35     V29    10.0   1_655     S
V35     V36    10.0   .     S
V35     V1    10.0   1_655     S
V35     V2    10.0   1_655     S
V35     V30    10.0   1_655     S
V36     V30    10.0   1_655     S
V36     V34    10.0   1_565     S
V36     V2    10.0   1_655     S
V36     V3    10.0   1_655     S
V36     V28    10.0   1_665     S
V37     V39    10.0   1_545     S
V37     V38    10.0   .     S
V37     V55    10.0   .     S
V37     V46    10.0   .     S
V37     V50    10.0   .     S
V37     V45    10.0   1_445     S
V37     V41    10.0   .     S
V37     V56    10.0   .     S
V37     V59    10.0   .     S
V37     V43    10.0   1_455     S
V37     V40    10.0   .     S
V38     V39    10.0   .     S
V38     V56    10.0   .     S
V38     V47    10.0   .     S
V38     V51    10.0   .     S
V38     V43    10.0   1_455     S
V38     V42    10.0   .     S
V38     V57    10.0   .     S
V38     V60    10.0   .     S
V38     V44    10.0   1_455     S
V38     V41    10.0   .     S
V39     V37    10.0   1_565     S
V39     V57    10.0   .     S
V39     V48    10.0   .     S
V39     V49    10.0   1_565     S
V39     V44    10.0   1_455     S
V39     V40    10.0   1_565     S
V39     V55    10.0   1_565     S
V39     V58    10.0   1_565     S
V39     V45    10.0   1_455     S
V39     V42    10.0   .     S
V40     V42    10.0   1_545     S
V40     V41    10.0   .     S
V40     V58    10.0   .     S
V40     V49    10.0   .     S
V40     V53    10.0   .     S
V40     V39    10.0   1_545     S
V40     V44    10.0   .     S
V40     V59    10.0   .     S
V40     V62    10.0   .     S
V40     V43    10.0   .     S
V41     V42    10.0   .     S
V41     V59    10.0   .     S
V41     V50    10.0   .     S
V41     V54    10.0   .     S
V41     V45    10.0   .     S
V41     V60    10.0   .     S
V41     V63    10.0   .     S
V41     V44    10.0   .     S
V42     V40    10.0   1_565     S
V42     V60    10.0   .     S
V42     V51    10.0   .     S
V42     V52    10.0   1_565     S
V42     V43    10.0   1_565     S
V42     V58    10.0   1_565     S
V42     V61    10.0   1_565     S
V42     V45    10.0   .     S
V43     V45    10.0   1_545     S
V43     V44    10.0   .     S
V43     V61    10.0   .     S
V43     V52    10.0   .     S
V43     V47    10.0   1_655     S
V43     V38    10.0   1_655     S
V43     V42    10.0   1_545     S
V43     V62    10.0   .     S
V43     V56    10.0   1_655     S
V43     V37    10.0   1_655     S
V44     V45    10.0   .     S
V44     V62    10.0   .     S
V44     V53    10.0   .     S
V44     V48    10.0   1_655     S
V44     V39    10.0   1_655     S
V44     V63    10.0   .     S
V44     V57    10.0   1_655     S
V44     V38    10.0   1_655     S
V45     V43    10.0   1_565     S
V45     V63    10.0   .     S
V45     V54    10.0   .     S
V45     V46    10.0   1_665     S
V45     V37    10.0   1_665     S
V45     V61    10.0   1_565     S
V45     V55    10.0   1_665     S
V45     V39    10.0   1_655     S
V46     V49    10.0   .     S
V46     V52    10.0   1_455     S
V46     V27    10.0   1_445     S
V46     V47    10.0   .     S
V46     V48    10.0   1_545     S
V46     V45    10.0   1_445     S
V46     V50    10.0   .     S
V46     V54    10.0   1_445     S
V46     V25    10.0   1_455     S
V47     V50    10.0   .     S
V47     V53    10.0   1_455     S
V47     V25    10.0   1_455     S
V47     V48    10.0   .     S
V47     V43    10.0   1_455     S
V47     V51    10.0   .     S
V47     V52    10.0   1_455     S
V47     V26    10.0   1_455     S
V48     V51    10.0   .     S
V48     V54    10.0   1_455     S
V48     V26    10.0   1_455     S
V48     V46    10.0   1_565     S
V48     V44    10.0   1_455     S
V48     V49    10.0   1_565     S
V48     V53    10.0   1_455     S
V48     V27    10.0   1_455     S
V49     V52    10.0   .     S
V49     V21    10.0   1_545     S
V49     V50    10.0   .     S
V49     V51    10.0   1_545     S
V49     V39    10.0   1_545     S
V49     V48    10.0   1_545     S
V49     V53    10.0   .     S
V50     V53    10.0   .     S
V50     V51    10.0   .     S
V50     V54    10.0   .     S
V51     V54    10.0   .     S
V51     V49    10.0   1_565     S
V51     V52    10.0   1_565     S
V52     V46    10.0   1_655     S
V52     V24    10.0   1_545     S
V52     V53    10.0   .     S
V52     V54    10.0   1_545     S
V52     V42    10.0   1_545     S
V52     V51    10.0   1_545     S
V52     V47    10.0   1_655     S
V53     V47    10.0   1_655     S
V53     V54    10.0   .     S
V53     V48    10.0   1_655     S
V54     V48    10.0   1_655     S
V54     V52    10.0   1_565     S
V54     V46    10.0   1_665     S
V55     V39    10.0   1_545     S
V55     V56    10.0   .     S
V55     V57    10.0   1_545     S
V55     V64    10.0   .     S
V55     V70    10.0   1_455     S
V55     V58    10.0   .     S
V55     V61    10.0   1_455     S
V55     V45    10.0   1_445     S
V55     V59    10.0   .     S
V55     V63    10.0   1_445     S
V56     V57    10.0   .     S
V56     V65    10.0   .     S
V56     V71    10.0   1_455     S
V56     V59    10.0   .     S
V56     V62    10.0   1_455     S
V56     V43    10.0   1_455     S
V56     V60    10.0   .     S
V56     V61    10.0   1_455     S
V57     V55    10.0   1_565     S
V57     V66    10.0   .     S
V57     V72    10.0   1_455     S
V57     V60    10.0   .     S
V57     V63    10.0   1_455     S
V57     V44    10.0   1_455     S
V57     V58    10.0   1_565     S
V57     V62    10.0   1_455     S
V58     V42    10.0   1_545     S
V58     V59    10.0   .     S
V58     V60    10.0   1_545     S
V58     V67    10.0   .     S
V58     V64    10.0   .     S
V58     V61    10.0   .     S
V58     V39    10.0   1_545     S
V58     V57    10.0   1_545     S
V58     V62    10.0   .     S
V59     V60    10.0   .     S
V59     V68    10.0   .     S
V59     V65    10.0   .     S
V59     V62    10.0   .     S
V59     V63    10.0   .     S
V60     V58    10.0   1_565     S
V60     V69    10.0   .     S
V60     V66    10.0   .     S
V60     V63    10.0   .     S
V60     V61    10.0   1_565     S
V61     V45    10.0   1_545     S
V61     V62    10.0   .     S
V61     V63    10.0   1_545     S
V61     V70    10.0   .     S
V61     V67    10.0   .     S
V61     V55    10.0   1_655     S
V61     V42    10.0   1_545     S
V61     V60    10.0   1_545     S
V61     V56    10.0   1_655     S
V62     V63    10.0   .     S
V62     V71    10.0   .     S
V62     V68    10.0   .     S
V62     V56    10.0   1_655     S
V62     V57    10.0   1_655     S
V63     V61    10.0   1_565     S
V63     V72    10.0   .     S
V63     V69    10.0   .     S
V63     V57    10.0   1_655     S
V63     V55    10.0   1_665     S
V64     V70    10.0   1_455     S
V64     V67    10.0   .     S
V64     V96    10.0   1_545     S
V64     V93    10.0   1_545     S
V64     V72    10.0   1_445     S
V64     V68    10.0   .     S
V64     V65    10.0   .     S
V64     V66    10.0   1_545     S
V64     V94    10.0   .     S
V65     V71    10.0   1_455     S
V65     V68    10.0   .     S
V65     V94    10.0   .     S
V65     V91    10.0   .     S
V65     V70    10.0   1_455     S
V65     V69    10.0   .     S
V65     V66    10.0   .     S
V65     V95    10.0   .     S
V66     V72    10.0   1_455     S
V66     V69    10.0   .     S
V66     V95    10.0   .     S
V66     V92    10.0   .     S
V66     V71    10.0   1_455     S
V66     V67    10.0   1_565     S
V66     V64    10.0   1_565     S
V66     V96    10.0   .     S
V67     V70    10.0   .     S
V67     V99    10.0   1_545     S
V67     V96    10.0   1_545     S
V67     V66    10.0   1_545     S
V67     V71    10.0   .     S
V67     V68    10.0   .     S
V67     V69    10.0   1_545     S
V67     V97    10.0   .     S
V68     V71    10.0   .     S
V68     V97    10.0   .     S
V68     V94    10.0   .     S
V68     V72    10.0   .     S
V68     V69    10.0   .     S
V68     V98    10.0   .     S
V69     V72    10.0   .     S
V69     V98    10.0   .     S
V69     V95    10.0   .     S
V69     V70    10.0   1_565     S
V69     V67    10.0   1_565     S
V69     V99    10.0   .     S
V70     V55    10.0   1_655     S
V70     V64    10.0   1_655     S
V70     V93    10.0   1_645     S
V70     V99    10.0   1_545     S
V70     V65    10.0   1_655     S
V70     V69    10.0   1_545     S
V70     V71    10.0   .     S
V70     V72    10.0   1_545     S
V70     V91    10.0   1_655     S
V71     V56    10.0   1_655     S
V71     V65    10.0   1_655     S
V71     V91    10.0   1_655     S
V71     V97    10.0   .     S
V71     V66    10.0   1_655     S
V71     V72    10.0   .     S
V71     V92    10.0   1_655     S
V72     V57    10.0   1_655     S
V72     V66    10.0   1_655     S
V72     V92    10.0   1_655     S
V72     V98    10.0   .     S
V72     V64    10.0   1_665     S
V72     V70    10.0   1_565     S
V72     V93    10.0   1_655     S
V73     V104    10.0   1_556     S
V73     V75    10.0   1_545     S
V73     V74    10.0   .     S
V73     V86    10.0   .     S
V73     V81    10.0   1_445     S
V73     V77    10.0   .     S
V73     V82    10.0   .     S
V73     V103    10.0   1_556     S
V73     V79    10.0   1_455     S
V73     V76    10.0   .     S
V73     V100    10.0   1_556     S
V74     V105    10.0   1_556     S
V74     V75    10.0   .     S
V74     V87    10.0   .     S
V74     V79    10.0   1_455     S
V74     V78    10.0   .     S
V74     V83    10.0   .     S
V74     V104    10.0   1_556     S
V74     V80    10.0   1_455     S
V74     V77    10.0   .     S
V74     V101    10.0   1_556     S
V75     V103    10.0   1_566     S
V75     V73    10.0   1_565     S
V75     V85    10.0   1_565     S
V75     V80    10.0   1_455     S
V75     V76    10.0   1_565     S
V75     V84    10.0   .     S
V75     V105    10.0   1_556     S
V75     V81    10.0   1_455     S
V75     V78    10.0   .     S
V75     V102    10.0   1_556     S
V76     V107    10.0   1_556     S
V76     V78    10.0   1_545     S
V76     V77    10.0   .     S
V76     V89    10.0   .     S
V76     V75    10.0   1_545     S
V76     V80    10.0   .     S
V76     V85    10.0   .     S
V76     V106    10.0   1_556     S
V76     V79    10.0   .     S
V76     V103    10.0   1_556     S
V77     V108    10.0   1_556     S
V77     V78    10.0   .     S
V77     V90    10.0   .     S
V77     V81    10.0   .     S
V77     V86    10.0   .     S
V77     V107    10.0   1_556     S
V77     V80    10.0   .     S
V77     V104    10.0   1_556     S
V78     V106    10.0   1_566     S
V78     V76    10.0   1_565     S
V78     V88    10.0   1_565     S
V78     V79    10.0   1_565     S
V78     V87    10.0   .     S
V78     V108    10.0   1_556     S
V78     V81    10.0   .     S
V78     V105    10.0   1_556     S
V79     V101    10.0   1_656     S
V79     V81    10.0   1_545     S
V79     V80    10.0   .     S
V79     V83    10.0   1_655     S
V79     V74    10.0   1_655     S
V79     V78    10.0   1_545     S
V79     V88    10.0   .     S
V79     V100    10.0   1_656     S
V79     V73    10.0   1_655     S
V79     V106    10.0   1_556     S
V80     V102    10.0   1_656     S
V80     V81    10.0   .     S
V80     V84    10.0   1_655     S
V80     V75    10.0   1_655     S
V80     V89    10.0   .     S
V80     V101    10.0   1_656     S
V80     V74    10.0   1_655     S
V80     V107    10.0   1_556     S
V81     V100    10.0   1_666     S
V81     V79    10.0   1_565     S
V81     V82    10.0   1_665     S
V81     V73    10.0   1_665     S
V81     V90    10.0   .     S
V81     V102    10.0   1_656     S
V81     V75    10.0   1_655     S
V81     V108    10.0   1_556     S
V82     V81    10.0   1_445     S
V82     V86    10.0   .     S
V82     V90    10.0   1_445     S
V82     V12    10.0   1_545     S
V82     V85    10.0   .     S
V82     V88    10.0   1_455     S
V82     V18    10.0   1_445     S
V82     V83    10.0   .     S
V82     V84    10.0   1_545     S
V83     V79    10.0   1_455     S
V83     V87    10.0   .     S
V83     V88    10.0   1_455     S
V83     V86    10.0   .     S
V83     V89    10.0   1_455     S
V83     V16    10.0   1_455     S
V83     V84    10.0   .     S
V84     V80    10.0   1_455     S
V84     V85    10.0   1_565     S
V84     V89    10.0   1_455     S
V84     V87    10.0   .     S
V84     V90    10.0   1_455     S
V84     V17    10.0   1_455     S
V84     V82    10.0   1_565     S
V85     V75    10.0   1_545     S
V85     V84    10.0   1_545     S
V85     V89    10.0   .     S
V85     V15    10.0   1_545     S
V85     V88    10.0   .     S
V85     V12    10.0   1_545     S
V85     V86    10.0   .     S
V85     V87    10.0   1_545     S
V86     V90    10.0   .     S
V86     V89    10.0   .     S
V86     V87    10.0   .     S
V87     V88    10.0   1_565     S
V87     V90    10.0   .     S
V87     V85    10.0   1_565     S
V88     V78    10.0   1_545     S
V88     V87    10.0   1_545     S
V88     V83    10.0   1_655     S
V88     V18    10.0   1_545     S
V88     V82    10.0   1_655     S
V88     V15    10.0   1_545     S
V88     V89    10.0   .     S
V88     V90    10.0   1_545     S
V89     V84    10.0   1_655     S
V89     V83    10.0   1_655     S
V89     V90    10.0   .     S
V90     V82    10.0   1_665     S
V90     V84    10.0   1_655     S
V90     V88    10.0   1_565     S
V91     V71    10.0   1_455     S
V91     V70    10.0   1_455     S
V91     V100    10.0   .     S
V91     V101    10.0   .     S
V91     V93    10.0   1_545     S
V91     V92    10.0   .     S
V91     V94    10.0   .     S
V91     V97    10.0   1_455     S
V91     V95    10.0   .     S
V91     V99    10.0   1_445     S
V92     V72    10.0   1_455     S
V92     V71    10.0   1_455     S
V92     V101    10.0   .     S
V92     V102    10.0   .     S
V92     V93    10.0   .     S
V92     V95    10.0   .     S
V92     V98    10.0   1_455     S
V92     V96    10.0   .     S
V92     V97    10.0   1_455     S
V93     V70    10.0   1_465     S
V93     V64    10.0   1_565     S
V93     V72    10.0   1_455     S
V93     V102    10.0   .     S
V93     V100    10.0   1_565     S
V93     V91    10.0   1_565     S
V93     V96    10.0   .     S
V93     V99    10.0   1_455     S
V93     V94    10.0   1_565     S
V93     V98    10.0   1_455     S
V94     V103    10.0   .     S
V94     V104    10.0   .     S
V94     V96    10.0   1_545     S
V94     V95    10.0   .     S
V94     V97    10.0   .     S
V94     V93    10.0   1_545     S
V94     V98    10.0   .     S
V95     V104    10.0   .     S
V95     V105    10.0   .     S
V95     V96    10.0   .     S
V95     V98    10.0   .     S
V95     V99    10.0   .     S
V96     V64    10.0   1_565     S
V96     V67    10.0   1_565     S
V96     V105    10.0   .     S
V96     V103    10.0   1_565     S
V96     V94    10.0   1_565     S
V96     V99    10.0   .     S
V96     V97    10.0   1_565     S
V97     V106    10.0   .     S
V97     V107    10.0   .     S
V97     V99    10.0   1_545     S
V97     V98    10.0   .     S
V97     V91    10.0   1_655     S
V97     V96    10.0   1_545     S
V97     V92    10.0   1_655     S
V98     V107    10.0   .     S
V98     V108    10.0   .     S
V98     V99    10.0   .     S
V98     V92    10.0   1_655     S
V98     V93    10.0   1_655     S
V99     V67    10.0   1_565     S
V99     V70    10.0   1_565     S
V99     V108    10.0   .     S
V99     V106    10.0   1_565     S
V99     V97    10.0   1_565     S
V99     V93    10.0   1_655     S
V99     V91    10.0   1_665     S
V100     V81    10.0   1_444     S
V100     V79    10.0   1_454     S
V100     V93    10.0   1_545     S
V100     V101    10.0   .     S
V100     V102    10.0   1_545     S
V100     V73    10.0   1_554     S
V100     V104    10.0   .     S
V100     V108    10.0   1_445     S
V100     V103    10.0   .     S
V100     V106    10.0   1_455     S
V101     V79    10.0   1_454     S
V101     V80    10.0   1_454     S
V101     V102    10.0   .     S
V101     V74    10.0   1_554     S
V101     V105    10.0   .     S
V101     V106    10.0   1_455     S
V101     V104    10.0   .     S
V101     V107    10.0   1_455     S
V102     V80    10.0   1_454     S
V102     V81    10.0   1_454     S
V102     V100    10.0   1_565     S
V102     V75    10.0   1_554     S
V102     V103    10.0   1_565     S
V102     V107    10.0   1_455     S
V102     V105    10.0   .     S
V102     V108    10.0   1_455     S
V103     V75    10.0   1_544     S
V103     V73    10.0   1_554     S
V103     V96    10.0   1_545     S
V103     V104    10.0   .     S
V103     V105    10.0   1_545     S
V103     V76    10.0   1_554     S
V103     V102    10.0   1_545     S
V103     V107    10.0   .     S
V103     V106    10.0   .     S
V104     V73    10.0   1_554     S
V104     V74    10.0   1_554     S
V104     V105    10.0   .     S
V104     V77    10.0   1_554     S
V104     V108    10.0   .     S
V104     V107    10.0   .     S
V105     V74    10.0   1_554     S
V105     V75    10.0   1_554     S
V105     V103    10.0   1_565     S
V105     V78    10.0   1_554     S
V105     V106    10.0   1_565     S
V105     V108    10.0   .     S
V106     V78    10.0   1_544     S
V106     V76    10.0   1_554     S
V106     V99    10.0   1_545     S
V106     V107    10.0   .     S
V106     V108    10.0   1_545     S
V106     V79    10.0   1_554     S
V106     V105    10.0   1_545     S
V106     V101    10.0   1_655     S
V106     V100    10.0   1_655     S
V107     V76    10.0   1_554     S
V107     V77    10.0   1_554     S
V107     V108    10.0   .     S
V107     V80    10.0   1_554     S
V107     V102    10.0   1_655     S
V107     V101    10.0   1_655     S
V108     V77    10.0   1_554     S
V108     V78    10.0   1_554     S
V108     V106    10.0   1_565     S
V108     V81    10.0   1_554     S
V108     V100    10.0   1_665     S
V108     V102    10.0   1_655     S
