data_epa
_audit_creation_date              2019-12-31
_audit_creation_method            'Pymatgen'
_symmetry_space_group_name_H-M    'P1'
_symmetry_Int_Tables_number       1
loop_
_symmetry_equiv_pos_as_xyz
  x,y,z
_cell_length_a                    40.2674
_cell_length_b                    40.2674
_cell_length_c                    48.5786
_cell_angle_alpha                 90.0
_cell_angle_beta                 90.0
_cell_angle_gamma                 120.0
loop_
_atom_site_label
_atom_site_type_symbol
_atom_site_fract_x
_atom_site_fract_y
_atom_site_fract_z
V1     V     0.0833   0.1667   0.3333
V2     V     0.0833   0.6667   0.3333
V3     V     0.5833   0.1667   0.3333
V4     V     0.5833   0.6667   0.3333
Ti5     Ti     0.1667   0.0833   0.1667
Ti6     Ti     0.1667   0.5833   0.1667
Ti7     Ti     0.6667   0.0833   0.1667
Ti8     Ti     0.6667   0.5833   0.1667
Ti9     Ti     0.4167   0.0833   0.1667
Ti10     Ti     0.4167   0.5833   0.1667
Ti11     Ti     0.9167   0.0833   0.1667
Ti12     Ti     0.9167   0.5833   0.1667
V13     V     0.0833   0.4167   0.3333
V14     V     0.0833   0.9167   0.3333
V15     V     0.5833   0.4167   0.3333
V16     V     0.5833   0.9167   0.3333
V17     V     0.3333   0.4167   0.3333
V18     V     0.3333   0.9167   0.3333
V19     V     0.8333   0.4167   0.3333
V20     V     0.8333   0.9167   0.3333
Ti21     Ti     0.4167   0.3333   0.1667
Ti22     Ti     0.4167   0.8333   0.1667
Ti23     Ti     0.9167   0.3333   0.1667
Ti24     Ti     0.9167   0.8333   0.1667
V25     V     0.25   0.0   0.0
V26     V     0.25   0.5   0.0
V27     V     0.75   0.0   0.0
V28     V     0.75   0.5   0.0
V29     V     0.25   0.25   0.0
V30     V     0.25   0.75   0.0
V31     V     0.75   0.25   0.0
V32     V     0.75   0.75   0.0
V33     V     0.0   0.25   0.0
V34     V     0.0   0.75   0.0
V35     V     0.5   0.25   0.0
V36     V     0.5   0.75   0.0
V37     V     0.1667   0.0833   0.6667
V38     V     0.1667   0.5833   0.6667
V39     V     0.6667   0.0833   0.6667
V40     V     0.6667   0.5833   0.6667
Ti41     Ti     0.0833   0.1667   0.8333
Ti42     Ti     0.0833   0.6667   0.8333
Ti43     Ti     0.5833   0.1667   0.8333
Ti44     Ti     0.5833   0.6667   0.8333
Ti45     Ti     0.0833   0.4167   0.8333
Ti46     Ti     0.0833   0.9167   0.8333
Ti47     Ti     0.5833   0.4167   0.8333
Ti48     Ti     0.5833   0.9167   0.8333
V49     V     0.4167   0.0833   0.6667
V50     V     0.4167   0.5833   0.6667
V51     V     0.9167   0.0833   0.6667
V52     V     0.9167   0.5833   0.6667
V53     V     0.4167   0.3333   0.6667
V54     V     0.4167   0.8333   0.6667
V55     V     0.9167   0.3333   0.6667
V56     V     0.9167   0.8333   0.6667
Ti57     Ti     0.3333   0.4167   0.8333
Ti58     Ti     0.3333   0.9167   0.8333
Ti59     Ti     0.8333   0.4167   0.8333
Ti60     Ti     0.8333   0.9167   0.8333
Ti61     Ti     0.0   0.25   0.5
Ti62     Ti     0.0   0.75   0.5
Ti63     Ti     0.5   0.25   0.5
Ti64     Ti     0.5   0.75   0.5
Ti65     Ti     0.25   0.25   0.5
Ti66     Ti     0.25   0.75   0.5
Ti67     Ti     0.75   0.25   0.5
Ti68     Ti     0.75   0.75   0.5
Ti69     Ti     0.25   0.0   0.5
Ti70     Ti     0.25   0.5   0.5
Ti71     Ti     0.75   0.0   0.5
Ti72     Ti     0.75   0.5   0.5
Er73     Er     0.0   0.0   0.0
Er74     Er     0.0   0.5   0.0
Er75     Er     0.5   0.0   0.0
Er76     Er     0.5   0.5   0.0
Er77     Er     0.3333   0.1667   0.3333
Er78     Er     0.3333   0.6667   0.3333
Er79     Er     0.8333   0.1667   0.3333
Er80     Er     0.8333   0.6667   0.3333
Er81     Er     0.1667   0.3333   0.6667
Er82     Er     0.1667   0.8333   0.6667
Er83     Er     0.6667   0.3333   0.6667
Er84     Er     0.6667   0.8333   0.6667
loop_
_geom_bond_atom_site_label_1
_geom_bond_atom_site_label_2
_geom_bond_distance
_geom_bond_site_symmetry_2
_ccdc_geom_bond_type
V1     Ti5    9.967   .     S
V1     Ti11    9.967   1_455     S
V1     Ti65    9.967   .     S
V1     Ti61    9.967   .     S
V1     Er79    10.067   1_455     S
V1     Er77    10.067   .     S
V2     Ti6    9.967   .     S
V2     Ti12    9.967   1_455     S
V2     Ti66    9.967   .     S
V2     Ti62    9.967   .     S
V2     Er80    10.067   1_455     S
V2     Er78    10.067   .     S
V3     Ti7    9.967   .     S
V3     Ti9    9.967   .     S
V3     Ti67    9.967   .     S
V3     Ti63    9.967   .     S
V3     Er77    10.067   .     S
V3     Er79    10.067   .     S
V4     Ti8    9.967   .     S
V4     Ti10    9.967   .     S
V4     Ti68    9.967   .     S
V4     Ti64    9.967   .     S
V4     Er78    10.067   .     S
V4     Er80    10.067   .     S
Ti5     V14    9.967   1_545     S
Ti5     V25    9.967   .     S
Ti5     V29    9.967   .     S
Ti6     V13    9.967   .     S
Ti6     V26    9.967   .     S
Ti6     V30    9.967   .     S
Ti7     V16    9.967   1_545     S
Ti7     V27    9.967   .     S
Ti7     V31    9.967   .     S
Ti8     V15    9.967   .     S
Ti8     V28    9.967   .     S
Ti8     V32    9.967   .     S
Ti9     V18    9.967   1_545     S
Ti9     V25    9.967   .     S
Ti9     V35    9.967   .     S
Ti10     V17    9.967   .     S
Ti10     V26    9.967   .     S
Ti10     V36    9.967   .     S
Ti11     V1    9.967   1_655     S
Ti11     V20    9.967   1_545     S
Ti11     V27    9.967   .     S
Ti11     V33    9.967   1_655     S
Ti12     V2    9.967   1_655     S
Ti12     V19    9.967   .     S
Ti12     V28    9.967   .     S
Ti12     V34    9.967   1_655     S
V13     Ti23    9.967   1_455     S
V13     Ti70    9.967   .     S
V13     Ti61    9.967   .     S
V13     Er79    10.067   1_455     S
V13     Er78    10.067   .     S
V14     Ti5    9.967   1_565     S
V14     Ti24    9.967   1_455     S
V14     Ti69    9.967   1_565     S
V14     Ti62    9.967   .     S
V14     Er80    10.067   1_455     S
V14     Er77    10.067   1_565     S
V15     Ti21    9.967   .     S
V15     Ti72    9.967   .     S
V15     Ti63    9.967   .     S
V15     Er77    10.067   .     S
V15     Er80    10.067   .     S
V16     Ti7    9.967   1_565     S
V16     Ti22    9.967   .     S
V16     Ti71    9.967   1_565     S
V16     Ti64    9.967   .     S
V16     Er78    10.067   .     S
V16     Er79    10.067   1_565     S
V17     Ti21    9.967   .     S
V17     Ti65    9.967   .     S
V17     Ti70    9.967   .     S
V17     Er77    10.067   .     S
V17     Er78    10.067   .     S
V18     Ti9    9.967   1_565     S
V18     Ti22    9.967   .     S
V18     Ti66    9.967   .     S
V18     Ti69    9.967   1_565     S
V18     Er78    10.067   .     S
V18     Er77    10.067   1_565     S
V19     Ti23    9.967   .     S
V19     Ti67    9.967   .     S
V19     Ti72    9.967   .     S
V19     Er79    10.067   .     S
V19     Er80    10.067   .     S
V20     Ti11    9.967   1_565     S
V20     Ti24    9.967   .     S
V20     Ti68    9.967   .     S
V20     Ti71    9.967   1_565     S
V20     Er80    10.067   .     S
V20     Er79    10.067   1_565     S
Ti21     V29    9.967   .     S
Ti21     V35    9.967   .     S
Ti22     V30    9.967   .     S
Ti22     V36    9.967   .     S
Ti23     V13    9.967   1_655     S
Ti23     V31    9.967   .     S
Ti23     V33    9.967   1_655     S
Ti24     V14    9.967   1_655     S
Ti24     V32    9.967   .     S
Ti24     V34    9.967   1_655     S
V25     Ti58    9.967   1_544     S
V25     Ti46    9.967   1_544     S
V25     Er73    10.067   .     S
V25     Er75    10.067   .     S
V26     Ti57    9.967   1_554     S
V26     Ti45    9.967   1_554     S
V26     Er74    10.067   .     S
V26     Er76    10.067   .     S
V27     Ti60    9.967   1_544     S
V27     Ti48    9.967   1_544     S
V27     Er75    10.067   .     S
V27     Er73    10.067   1_655     S
V28     Ti59    9.967   1_554     S
V28     Ti47    9.967   1_554     S
V28     Er76    10.067   .     S
V28     Er74    10.067   1_655     S
V29     Ti41    9.967   1_554     S
V29     Ti57    9.967   1_554     S
V29     Er76    10.067   .     S
V29     Er73    10.067   .     S
V30     Ti42    9.967   1_554     S
V30     Ti58    9.967   1_554     S
V30     Er75    10.067   1_565     S
V30     Er74    10.067   .     S
V31     Ti43    9.967   1_554     S
V31     Ti59    9.967   1_554     S
V31     Er74    10.067   1_655     S
V31     Er75    10.067   .     S
V32     Ti44    9.967   1_554     S
V32     Ti60    9.967   1_554     S
V32     Er73    10.067   1_665     S
V32     Er76    10.067   .     S
V33     Ti41    9.967   1_554     S
V33     Ti11    9.967   1_455     S
V33     Ti45    9.967   1_554     S
V33     Ti23    9.967   1_455     S
V33     Er74    10.067   .     S
V33     Er73    10.067   .     S
V34     Ti42    9.967   1_554     S
V34     Ti12    9.967   1_455     S
V34     Ti46    9.967   1_554     S
V34     Ti24    9.967   1_455     S
V34     Er73    10.067   1_565     S
V34     Er74    10.067   .     S
V35     Ti43    9.967   1_554     S
V35     Ti47    9.967   1_554     S
V35     Er76    10.067   .     S
V35     Er75    10.067   .     S
V36     Ti44    9.967   1_554     S
V36     Ti48    9.967   1_554     S
V36     Er75    10.067   1_565     S
V36     Er76    10.067   .     S
V37     Ti65    9.967   .     S
V37     Ti69    9.967   .     S
V37     Ti41    9.967   .     S
V37     Ti46    9.967   1_545     S
V37     Er82    10.067   1_545     S
V37     Er81    10.067   .     S
V38     Ti66    9.967   .     S
V38     Ti70    9.967   .     S
V38     Ti42    9.967   .     S
V38     Ti45    9.967   .     S
V38     Er81    10.067   .     S
V38     Er82    10.067   .     S
V39     Ti67    9.967   .     S
V39     Ti71    9.967   .     S
V39     Ti43    9.967   .     S
V39     Ti48    9.967   1_545     S
V39     Er84    10.067   1_545     S
V39     Er83    10.067   .     S
V40     Ti68    9.967   .     S
V40     Ti72    9.967   .     S
V40     Ti44    9.967   .     S
V40     Ti47    9.967   .     S
V40     Er83    10.067   .     S
V40     Er84    10.067   .     S
Ti41     V29    9.967   1_556     S
Ti41     V33    9.967   1_556     S
Ti41     V51    9.967   1_455     S
Ti42     V30    9.967   1_556     S
Ti42     V34    9.967   1_556     S
Ti42     V52    9.967   1_455     S
Ti43     V31    9.967   1_556     S
Ti43     V35    9.967   1_556     S
Ti43     V49    9.967   .     S
Ti44     V32    9.967   1_556     S
Ti44     V36    9.967   1_556     S
Ti44     V50    9.967   .     S
Ti45     V26    9.967   1_556     S
Ti45     V33    9.967   1_556     S
Ti45     V55    9.967   1_455     S
Ti46     V25    9.967   1_566     S
Ti46     V34    9.967   1_556     S
Ti46     V37    9.967   1_565     S
Ti46     V56    9.967   1_455     S
Ti47     V28    9.967   1_556     S
Ti47     V35    9.967   1_556     S
Ti47     V53    9.967   .     S
Ti48     V27    9.967   1_566     S
Ti48     V36    9.967   1_556     S
Ti48     V39    9.967   1_565     S
Ti48     V54    9.967   .     S
V49     Ti63    9.967   .     S
V49     Ti69    9.967   .     S
V49     Ti58    9.967   1_545     S
V49     Er83    10.067   .     S
V49     Er82    10.067   1_545     S
V50     Ti64    9.967   .     S
V50     Ti70    9.967   .     S
V50     Ti57    9.967   .     S
V50     Er84    10.067   .     S
V50     Er81    10.067   .     S
V51     Ti61    9.967   1_655     S
V51     Ti71    9.967   .     S
V51     Ti41    9.967   1_655     S
V51     Ti60    9.967   1_545     S
V51     Er81    10.067   1_655     S
V51     Er84    10.067   1_545     S
V52     Ti62    9.967   1_655     S
V52     Ti72    9.967   .     S
V52     Ti42    9.967   1_655     S
V52     Ti59    9.967   .     S
V52     Er82    10.067   1_655     S
V52     Er83    10.067   .     S
V53     Ti63    9.967   .     S
V53     Ti65    9.967   .     S
V53     Ti57    9.967   .     S
V53     Er81    10.067   .     S
V53     Er83    10.067   .     S
V54     Ti64    9.967   .     S
V54     Ti66    9.967   .     S
V54     Ti58    9.967   .     S
V54     Er82    10.067   .     S
V54     Er84    10.067   .     S
V55     Ti61    9.967   1_655     S
V55     Ti67    9.967   .     S
V55     Ti45    9.967   1_655     S
V55     Ti59    9.967   .     S
V55     Er83    10.067   .     S
V55     Er81    10.067   1_655     S
V56     Ti62    9.967   1_655     S
V56     Ti68    9.967   .     S
V56     Ti46    9.967   1_655     S
V56     Ti60    9.967   .     S
V56     Er84    10.067   .     S
V56     Er82    10.067   1_655     S
Ti57     V26    9.967   1_556     S
Ti57     V29    9.967   1_556     S
Ti58     V25    9.967   1_566     S
Ti58     V30    9.967   1_556     S
Ti58     V49    9.967   1_565     S
Ti59     V28    9.967   1_556     S
Ti59     V31    9.967   1_556     S
Ti60     V27    9.967   1_566     S
Ti60     V32    9.967   1_556     S
Ti60     V51    9.967   1_565     S
Ti61     V51    9.967   1_455     S
Ti61     V55    9.967   1_455     S
Ti62     V52    9.967   1_455     S
Ti62     V56    9.967   1_455     S
Ti69     V14    9.967   1_545     S
Ti69     V18    9.967   1_545     S
Ti71     V16    9.967   1_545     S
Ti71     V20    9.967   1_545     S
Er73     V27    10.067   1_455     S
Er73     V32    10.067   1_445     S
Er73     V34    10.067   1_545     S
Er74     V28    10.067   1_455     S
Er74     V31    10.067   1_455     S
Er75     V30    10.067   1_545     S
Er75     V36    10.067   1_545     S
Er77     V14    10.067   1_545     S
Er77     V18    10.067   1_545     S
Er79     V1    10.067   1_655     S
Er79     V13    10.067   1_655     S
Er79     V16    10.067   1_545     S
Er79     V20    10.067   1_545     S
Er80     V2    10.067   1_655     S
Er80     V14    10.067   1_655     S
Er81     V51    10.067   1_455     S
Er81     V55    10.067   1_455     S
Er82     V37    10.067   1_565     S
Er82     V52    10.067   1_455     S
Er82     V49    10.067   1_565     S
Er82     V56    10.067   1_455     S
Er84     V39    10.067   1_565     S
Er84     V51    10.067   1_565     S
