data_epf
_audit_creation_date              2019-12-31
_audit_creation_method            'Pymatgen'
_symmetry_space_group_name_H-M    'P1'
_symmetry_Int_Tables_number       1
loop_
_symmetry_equiv_pos_as_xyz
  x,y,z
_cell_length_a                    37.0812
_cell_length_b                    37.0812
_cell_length_c                    103.5917
_cell_angle_alpha                 90.0
_cell_angle_beta                 90.0
_cell_angle_gamma                 90.0
loop_
_atom_site_label
_atom_site_type_symbol
_atom_site_fract_x
_atom_site_fract_y
_atom_site_fract_z
Ti1     Ti     0.375   0.375   0.75
Ti2     Ti     0.375   0.875   0.75
Ti3     Ti     0.875   0.375   0.75
Ti4     Ti     0.875   0.875   0.75
Ti5     Ti     0.125   0.375   0.75
Ti6     Ti     0.125   0.875   0.75
Ti7     Ti     0.625   0.375   0.75
Ti8     Ti     0.625   0.875   0.75
Er9     Er     0.3408   0.125   0.7158
Er10     Er     0.3408   0.625   0.7158
Er11     Er     0.8408   0.125   0.7158
Er12     Er     0.8408   0.625   0.7158
Er13     Er     0.1592   0.125   0.7158
Er14     Er     0.1592   0.625   0.7158
Er15     Er     0.6592   0.125   0.7158
Er16     Er     0.6592   0.625   0.7158
Er17     Er     0.25   0.2158   0.5342
Er18     Er     0.25   0.7158   0.5342
Er19     Er     0.75   0.2158   0.5342
Er20     Er     0.75   0.7158   0.5342
Er21     Er     0.25   0.0342   0.5342
Er22     Er     0.25   0.5342   0.5342
Er23     Er     0.75   0.0342   0.5342
Er24     Er     0.75   0.5342   0.5342
V25     V     0.25   0.125   0.625
V26     V     0.25   0.625   0.625
V27     V     0.75   0.125   0.625
V28     V     0.75   0.625   0.625
Er29     Er     0.4092   0.125   0.7842
Er30     Er     0.4092   0.625   0.7842
Er31     Er     0.9092   0.125   0.7842
Er32     Er     0.9092   0.625   0.7842
Er33     Er     0.0908   0.125   0.7842
Er34     Er     0.0908   0.625   0.7842
Er35     Er     0.5908   0.125   0.7842
Er36     Er     0.5908   0.625   0.7842
Er37     Er     0.0   0.0342   0.9658
Er38     Er     0.0   0.5342   0.9658
Er39     Er     0.5   0.0342   0.9658
Er40     Er     0.5   0.5342   0.9658
Er41     Er     0.0   0.2158   0.9658
Er42     Er     0.0   0.7158   0.9658
Er43     Er     0.5   0.2158   0.9658
Er44     Er     0.5   0.7158   0.9658
V45     V     0.0   0.125   0.875
V46     V     0.0   0.625   0.875
V47     V     0.5   0.125   0.875
V48     V     0.5   0.625   0.875
Ti49     Ti     0.0   0.25   0.5
Ti50     Ti     0.0   0.75   0.5
Ti51     Ti     0.5   0.25   0.5
Ti52     Ti     0.5   0.75   0.5
Ti53     Ti     0.0   0.0   0.5
Ti54     Ti     0.0   0.5   0.5
Ti55     Ti     0.5   0.0   0.5
Ti56     Ti     0.5   0.5   0.5
Ti57     Ti     0.25   0.25   0.0
Ti58     Ti     0.25   0.75   0.0
Ti59     Ti     0.75   0.25   0.0
Ti60     Ti     0.75   0.75   0.0
Er61     Er     0.0908   0.375   0.2158
Er62     Er     0.0908   0.875   0.2158
Er63     Er     0.5908   0.375   0.2158
Er64     Er     0.5908   0.875   0.2158
Er65     Er     0.4092   0.375   0.2158
Er66     Er     0.4092   0.875   0.2158
Er67     Er     0.9092   0.375   0.2158
Er68     Er     0.9092   0.875   0.2158
Er69     Er     0.0   0.2842   0.0342
Er70     Er     0.0   0.7842   0.0342
Er71     Er     0.5   0.2842   0.0342
Er72     Er     0.5   0.7842   0.0342
Er73     Er     0.0   0.4658   0.0342
Er74     Er     0.0   0.9658   0.0342
Er75     Er     0.5   0.4658   0.0342
Er76     Er     0.5   0.9658   0.0342
V77     V     0.0   0.375   0.125
V78     V     0.0   0.875   0.125
V79     V     0.5   0.375   0.125
V80     V     0.5   0.875   0.125
Ti81     Ti     0.25   0.0   0.0
Ti82     Ti     0.25   0.5   0.0
Ti83     Ti     0.75   0.0   0.0
Ti84     Ti     0.75   0.5   0.0
Ti85     Ti     0.125   0.125   0.25
Ti86     Ti     0.125   0.625   0.25
Ti87     Ti     0.625   0.125   0.25
Ti88     Ti     0.625   0.625   0.25
Er89     Er     0.25   0.4658   0.4658
Er90     Er     0.25   0.9658   0.4658
Er91     Er     0.75   0.4658   0.4658
Er92     Er     0.75   0.9658   0.4658
Er93     Er     0.25   0.2842   0.4658
Er94     Er     0.25   0.7842   0.4658
Er95     Er     0.75   0.2842   0.4658
Er96     Er     0.75   0.7842   0.4658
Er97     Er     0.1592   0.375   0.2842
Er98     Er     0.1592   0.875   0.2842
Er99     Er     0.6592   0.375   0.2842
Er100     Er     0.6592   0.875   0.2842
Er101     Er     0.3408   0.375   0.2842
Er102     Er     0.3408   0.875   0.2842
Er103     Er     0.8408   0.375   0.2842
Er104     Er     0.8408   0.875   0.2842
V105     V     0.25   0.375   0.375
V106     V     0.25   0.875   0.375
V107     V     0.75   0.375   0.375
V108     V     0.75   0.875   0.375
Ti109     Ti     0.375   0.125   0.25
Ti110     Ti     0.375   0.625   0.25
Ti111     Ti     0.875   0.125   0.25
Ti112     Ti     0.875   0.625   0.25
loop_
_geom_bond_atom_site_label_1
_geom_bond_atom_site_label_2
_geom_bond_distance
_geom_bond_site_symmetry_2
_ccdc_geom_bond_type
Ti1     Er9    10.005   .     S
Ti1     Er29    10.005   .     S
Ti1     Er30    10.005   .     S
Ti1     Er10    10.005   .     S
Ti2     Er10    10.005   .     S
Ti2     Er30    10.005   .     S
Ti2     Er29    10.005   1_565     S
Ti2     Er9    10.005   1_565     S
Ti3     Er11    10.005   .     S
Ti3     Er31    10.005   .     S
Ti3     Er32    10.005   .     S
Ti3     Er12    10.005   .     S
Ti4     Er12    10.005   .     S
Ti4     Er32    10.005   .     S
Ti4     Er31    10.005   1_565     S
Ti4     Er11    10.005   1_565     S
Ti5     Er33    10.005   .     S
Ti5     Er13    10.005   .     S
Ti5     Er14    10.005   .     S
Ti5     Er34    10.005   .     S
Ti6     Er34    10.005   .     S
Ti6     Er14    10.005   .     S
Ti6     Er13    10.005   1_565     S
Ti6     Er33    10.005   1_565     S
Ti7     Er35    10.005   .     S
Ti7     Er15    10.005   .     S
Ti7     Er16    10.005   .     S
Ti7     Er36    10.005   .     S
Ti8     Er36    10.005   .     S
Ti8     Er16    10.005   .     S
Ti8     Er15    10.005   1_565     S
Ti8     Er35    10.005   1_565     S
Er9     Ti2    10.005   1_545     S
Er9     V25    9.989   .     S
Er10     V26    9.989   .     S
Er11     Ti4    10.005   1_545     S
Er11     V27    9.989   .     S
Er12     V28    9.989   .     S
Er13     Ti6    10.005   1_545     S
Er13     V25    9.989   .     S
Er14     V26    9.989   .     S
Er15     Ti8    10.005   1_545     S
Er15     V27    9.989   .     S
Er16     V28    9.989   .     S
Er17     V25    9.989   .     S
Er17     Ti49    10.005   .     S
Er17     Ti51    10.005   .     S
Er18     V26    9.989   .     S
Er18     Ti50    10.005   .     S
Er18     Ti52    10.005   .     S
Er19     V27    9.989   .     S
Er19     Ti51    10.005   .     S
Er19     Ti49    10.005   1_655     S
Er20     V28    9.989   .     S
Er20     Ti52    10.005   .     S
Er20     Ti50    10.005   1_655     S
Er21     V25    9.989   .     S
Er21     Ti53    10.005   .     S
Er21     Ti55    10.005   .     S
Er22     V26    9.989   .     S
Er22     Ti54    10.005   .     S
Er22     Ti56    10.005   .     S
Er23     V27    9.989   .     S
Er23     Ti55    10.005   .     S
Er23     Ti53    10.005   1_655     S
Er24     V28    9.989   .     S
Er24     Ti56    10.005   .     S
Er24     Ti54    10.005   1_655     S
Er29     Ti2    10.005   1_545     S
Er29     V47    9.989   .     S
Er30     V48    9.989   .     S
Er31     Ti4    10.005   1_545     S
Er31     V45    9.989   1_655     S
Er32     V46    9.989   1_655     S
Er33     Ti6    10.005   1_545     S
Er33     V45    9.989   .     S
Er34     V46    9.989   .     S
Er35     Ti8    10.005   1_545     S
Er35     V47    9.989   .     S
Er36     V48    9.989   .     S
Er37     V45    9.989   .     S
Er37     Ti83    10.005   1_456     S
Er37     Ti81    10.005   1_556     S
Er38     V46    9.989   .     S
Er38     Ti84    10.005   1_456     S
Er38     Ti82    10.005   1_556     S
Er39     V47    9.989   .     S
Er39     Ti81    10.005   1_556     S
Er39     Ti83    10.005   1_556     S
Er40     V48    9.989   .     S
Er40     Ti82    10.005   1_556     S
Er40     Ti84    10.005   1_556     S
Er41     V45    9.989   .     S
Er41     Ti59    10.005   1_456     S
Er41     Ti57    10.005   1_556     S
Er42     V46    9.989   .     S
Er42     Ti60    10.005   1_456     S
Er42     Ti58    10.005   1_556     S
Er43     V47    9.989   .     S
Er43     Ti57    10.005   1_556     S
Er43     Ti59    10.005   1_556     S
Er44     V48    9.989   .     S
Er44     Ti58    10.005   1_556     S
Er44     Ti60    10.005   1_556     S
V45     Er31    9.989   1_455     S
V46     Er32    9.989   1_455     S
Ti49     Er93    10.005   .     S
Ti49     Er95    10.005   1_455     S
Ti49     Er19    10.005   1_455     S
Ti50     Er94    10.005   .     S
Ti50     Er96    10.005   1_455     S
Ti50     Er20    10.005   1_455     S
Ti51     Er95    10.005   .     S
Ti51     Er93    10.005   .     S
Ti52     Er96    10.005   .     S
Ti52     Er94    10.005   .     S
Ti53     Er90    10.005   1_545     S
Ti53     Er23    10.005   1_455     S
Ti53     Er92    10.005   1_445     S
Ti54     Er89    10.005   .     S
Ti54     Er24    10.005   1_455     S
Ti54     Er91    10.005   1_455     S
Ti55     Er92    10.005   1_545     S
Ti55     Er90    10.005   1_545     S
Ti56     Er91    10.005   .     S
Ti56     Er89    10.005   .     S
Ti57     Er43    10.005   1_554     S
Ti57     Er71    10.005   .     S
Ti57     Er69    10.005   .     S
Ti57     Er41    10.005   1_554     S
Ti58     Er44    10.005   1_554     S
Ti58     Er72    10.005   .     S
Ti58     Er70    10.005   .     S
Ti58     Er42    10.005   1_554     S
Ti59     Er41    10.005   1_654     S
Ti59     Er69    10.005   1_655     S
Ti59     Er71    10.005   .     S
Ti59     Er43    10.005   1_554     S
Ti60     Er42    10.005   1_654     S
Ti60     Er70    10.005   1_655     S
Ti60     Er72    10.005   .     S
Ti60     Er44    10.005   1_554     S
Er61     V77    9.989   .     S
Er61     Ti85    10.005   .     S
Er61     Ti86    10.005   .     S
Er62     V78    9.989   .     S
Er62     Ti86    10.005   .     S
Er62     Ti85    10.005   1_565     S
Er63     V79    9.989   .     S
Er63     Ti87    10.005   .     S
Er63     Ti88    10.005   .     S
Er64     V80    9.989   .     S
Er64     Ti88    10.005   .     S
Er64     Ti87    10.005   1_565     S
Er65     V79    9.989   .     S
Er65     Ti109    10.005   .     S
Er65     Ti110    10.005   .     S
Er66     V80    9.989   .     S
Er66     Ti110    10.005   .     S
Er66     Ti109    10.005   1_565     S
Er67     V77    9.989   1_655     S
Er67     Ti111    10.005   .     S
Er67     Ti112    10.005   .     S
Er68     V78    9.989   1_655     S
Er68     Ti112    10.005   .     S
Er68     Ti111    10.005   1_565     S
Er69     Ti59    10.005   1_455     S
Er69     V77    9.989   .     S
Er70     Ti60    10.005   1_455     S
Er70     V78    9.989   .     S
Er71     V79    9.989   .     S
Er72     V80    9.989   .     S
Er73     V77    9.989   .     S
Er73     Ti84    10.005   1_455     S
Er73     Ti82    10.005   .     S
Er74     V78    9.989   .     S
Er74     Ti83    10.005   1_465     S
Er74     Ti81    10.005   1_565     S
Er75     V79    9.989   .     S
Er75     Ti82    10.005   .     S
Er75     Ti84    10.005   .     S
Er76     V80    9.989   .     S
Er76     Ti81    10.005   1_565     S
Er76     Ti83    10.005   1_565     S
V77     Er67    9.989   1_455     S
V78     Er68    9.989   1_455     S
Ti81     Er76    10.005   1_545     S
Ti81     Er39    10.005   1_554     S
Ti81     Er37    10.005   1_554     S
Ti81     Er74    10.005   1_545     S
Ti82     Er40    10.005   1_554     S
Ti82     Er38    10.005   1_554     S
Ti83     Er74    10.005   1_645     S
Ti83     Er37    10.005   1_654     S
Ti83     Er39    10.005   1_554     S
Ti83     Er76    10.005   1_545     S
Ti84     Er73    10.005   1_655     S
Ti84     Er38    10.005   1_654     S
Ti84     Er40    10.005   1_554     S
Ti85     Er97    10.005   .     S
Ti85     Er62    10.005   1_545     S
Ti85     Er98    10.005   1_545     S
Ti86     Er98    10.005   .     S
Ti86     Er97    10.005   .     S
Ti87     Er99    10.005   .     S
Ti87     Er64    10.005   1_545     S
Ti87     Er100    10.005   1_545     S
Ti88     Er100    10.005   .     S
Ti88     Er99    10.005   .     S
Er89     V105    9.989   .     S
Er90     Ti53    10.005   1_565     S
Er90     Ti55    10.005   1_565     S
Er90     V106    9.989   .     S
Er91     Ti54    10.005   1_655     S
Er91     V107    9.989   .     S
Er92     Ti55    10.005   1_565     S
Er92     Ti53    10.005   1_665     S
Er92     V108    9.989   .     S
Er93     V105    9.989   .     S
Er94     V106    9.989   .     S
Er95     Ti49    10.005   1_655     S
Er95     V107    9.989   .     S
Er96     Ti50    10.005   1_655     S
Er96     V108    9.989   .     S
Er97     V105    9.989   .     S
Er98     Ti85    10.005   1_565     S
Er98     V106    9.989   .     S
Er99     V107    9.989   .     S
Er100     Ti87    10.005   1_565     S
Er100     V108    9.989   .     S
Er101     V105    9.989   .     S
Er101     Ti109    10.005   .     S
Er101     Ti110    10.005   .     S
Er102     V106    9.989   .     S
Er102     Ti110    10.005   .     S
Er102     Ti109    10.005   1_565     S
Er103     V107    9.989   .     S
Er103     Ti111    10.005   .     S
Er103     Ti112    10.005   .     S
Er104     V108    9.989   .     S
Er104     Ti112    10.005   .     S
Er104     Ti111    10.005   1_565     S
Ti109     Er102    10.005   1_545     S
Ti109     Er66    10.005   1_545     S
Ti111     Er104    10.005   1_545     S
Ti111     Er68    10.005   1_545     S
