data_epv
_audit_creation_date              2019-12-31
_audit_creation_method            'Pymatgen'
_symmetry_space_group_name_H-M    'P1'
_symmetry_Int_Tables_number       1
loop_
_symmetry_equiv_pos_as_xyz
  x,y,z
_cell_length_a                    36.7832
_cell_length_b                    36.7832
_cell_length_c                    77.2648
_cell_angle_alpha                 90.0
_cell_angle_beta                 90.0
_cell_angle_gamma                 120.0
loop_
_atom_site_label
_atom_site_type_symbol
_atom_site_fract_x
_atom_site_fract_y
_atom_site_fract_z
Er1     Er     0.3931   0.2863   0.7137
Er2     Er     0.3931   0.7863   0.7137
Er3     Er     0.8931   0.2863   0.7137
Er4     Er     0.8931   0.7863   0.7137
Er5     Er     0.2137   0.1069   0.7137
Er6     Er     0.2137   0.6069   0.7137
Er7     Er     0.7137   0.1069   0.7137
Er8     Er     0.7137   0.6069   0.7137
Er9     Er     0.3931   0.1069   0.7137
Er10     Er     0.3931   0.6069   0.7137
Er11     Er     0.8931   0.1069   0.7137
Er12     Er     0.8931   0.6069   0.7137
Ti13     Ti     0.3333   0.1667   0.8333
Ti14     Ti     0.3333   0.6667   0.8333
Ti15     Ti     0.8333   0.1667   0.8333
Ti16     Ti     0.8333   0.6667   0.8333
Er17     Er     0.453   0.2265   0.953
Er18     Er     0.453   0.7265   0.953
Er19     Er     0.953   0.2265   0.953
Er20     Er     0.953   0.7265   0.953
Er21     Er     0.2735   0.2265   0.953
Er22     Er     0.2735   0.7265   0.953
Er23     Er     0.7735   0.2265   0.953
Er24     Er     0.7735   0.7265   0.953
Er25     Er     0.2735   0.047   0.953
Er26     Er     0.2735   0.547   0.953
Er27     Er     0.7735   0.047   0.953
Er28     Er     0.7735   0.547   0.953
V29     V     0.1667   0.3333   0.6667
V30     V     0.1667   0.8333   0.6667
V31     V     0.6667   0.3333   0.6667
V32     V     0.6667   0.8333   0.6667
Er33     Er     0.1196   0.0598   0.6197
Er34     Er     0.1196   0.5598   0.6197
Er35     Er     0.6196   0.0598   0.6197
Er36     Er     0.6196   0.5598   0.6197
Er37     Er     0.4402   0.0598   0.6197
Er38     Er     0.4402   0.5598   0.6197
Er39     Er     0.9402   0.0598   0.6197
Er40     Er     0.9402   0.5598   0.6197
Er41     Er     0.4402   0.3804   0.6197
Er42     Er     0.4402   0.8804   0.6197
Er43     Er     0.9402   0.3804   0.6197
Er44     Er     0.9402   0.8804   0.6197
Er45     Er     0.0598   0.1196   0.3803
Er46     Er     0.0598   0.6196   0.3803
Er47     Er     0.5598   0.1196   0.3803
Er48     Er     0.5598   0.6196   0.3803
Er49     Er     0.3804   0.4402   0.3803
Er50     Er     0.3804   0.9402   0.3803
Er51     Er     0.8804   0.4402   0.3803
Er52     Er     0.8804   0.9402   0.3803
Er53     Er     0.0598   0.4402   0.3803
Er54     Er     0.0598   0.9402   0.3803
Er55     Er     0.5598   0.4402   0.3803
Er56     Er     0.5598   0.9402   0.3803
Ti57     Ti     0.0   0.0   0.5
Ti58     Ti     1.0   0.5   0.5
Ti59     Ti     0.5   0.0   0.5
Ti60     Ti     0.5   0.5   0.5
V61     V     0.0   0.0   0.0
V62     V     1.0   0.5   0.0
V63     V     0.5   0.0   0.0
V64     V     0.5   0.5   0.0
Ti65     Ti     0.1667   0.3333   0.1667
Ti66     Ti     0.1667   0.8333   0.1667
Ti67     Ti     0.6667   0.3333   0.1667
Ti68     Ti     0.6667   0.8333   0.1667
Er69     Er     0.2863   0.3931   0.2863
Er70     Er     0.2863   0.8931   0.2863
Er71     Er     0.7863   0.3931   0.2863
Er72     Er     0.7863   0.8931   0.2863
Er73     Er     0.1069   0.3931   0.2863
Er74     Er     0.1069   0.8931   0.2863
Er75     Er     0.6069   0.3931   0.2863
Er76     Er     0.6069   0.8931   0.2863
Er77     Er     0.1069   0.2137   0.2863
Er78     Er     0.1069   0.7137   0.2863
Er79     Er     0.6069   0.2137   0.2863
Er80     Er     0.6069   0.7137   0.2863
Er81     Er     0.2265   0.2735   0.047
Er82     Er     0.2265   0.7735   0.047
Er83     Er     0.7265   0.2735   0.047
Er84     Er     0.7265   0.7735   0.047
Er85     Er     0.2265   0.453   0.047
Er86     Er     0.2265   0.953   0.047
Er87     Er     0.7265   0.453   0.047
Er88     Er     0.7265   0.953   0.047
Er89     Er     0.047   0.2735   0.047
Er90     Er     0.047   0.7735   0.047
Er91     Er     0.547   0.2735   0.047
Er92     Er     0.547   0.7735   0.047
V93     V     0.3333   0.1667   0.3333
V94     V     0.3333   0.6667   0.3333
V95     V     0.8333   0.1667   0.3333
V96     V     0.8333   0.6667   0.3333
loop_
_geom_bond_atom_site_label_1
_geom_bond_atom_site_label_2
_geom_bond_distance
_geom_bond_site_symmetry_2
_ccdc_geom_bond_type
Er1     Ti13    10.0   .     S
Er1     V31    10.0   .     S
Er1     V29    10.0   .     S
Er2     Ti14    10.0   .     S
Er2     V32    10.0   .     S
Er2     V30    10.0   .     S
Er3     Ti15    10.0   .     S
Er3     V29    10.0   1_655     S
Er3     V31    10.0   .     S
Er4     Ti16    10.0   .     S
Er4     V30    10.0   1_655     S
Er4     V32    10.0   .     S
Er5     Ti13    10.0   .     S
Er5     V29    10.0   .     S
Er5     V30    10.0   1_545     S
Er6     Ti14    10.0   .     S
Er6     V30    10.0   .     S
Er6     V29    10.0   .     S
Er7     Ti15    10.0   .     S
Er7     V31    10.0   .     S
Er7     V32    10.0   1_545     S
Er8     Ti16    10.0   .     S
Er8     V32    10.0   .     S
Er8     V31    10.0   .     S
Er9     Ti13    10.0   .     S
Er9     V31    10.0   .     S
Er9     V30    10.0   1_545     S
Er10     Ti14    10.0   .     S
Er10     V32    10.0   .     S
Er10     V29    10.0   .     S
Er11     Ti15    10.0   .     S
Er11     V29    10.0   1_655     S
Er11     V32    10.0   1_545     S
Er12     Ti16    10.0   .     S
Er12     V30    10.0   1_655     S
Er12     V31    10.0   .     S
Ti13     Er21    10.0   .     S
Ti13     Er25    10.0   .     S
Ti13     Er17    10.0   .     S
Ti14     Er22    10.0   .     S
Ti14     Er26    10.0   .     S
Ti14     Er18    10.0   .     S
Ti15     Er23    10.0   .     S
Ti15     Er27    10.0   .     S
Ti15     Er19    10.0   .     S
Ti16     Er24    10.0   .     S
Ti16     Er28    10.0   .     S
Ti16     Er20    10.0   .     S
Er17     V63    10.0   1_556     S
Er17     V64    10.0   1_556     S
Er18     V64    10.0   1_556     S
Er18     V63    10.0   1_566     S
Er19     V61    10.0   1_656     S
Er19     V62    10.0   1_556     S
Er20     V62    10.0   1_556     S
Er20     V61    10.0   1_666     S
Er21     V61    10.0   1_556     S
Er21     V64    10.0   1_556     S
Er22     V62    10.0   1_456     S
Er22     V63    10.0   1_566     S
Er23     V63    10.0   1_556     S
Er23     V62    10.0   1_556     S
Er24     V64    10.0   1_556     S
Er24     V61    10.0   1_666     S
Er25     V61    10.0   1_556     S
Er25     V63    10.0   1_556     S
Er26     V62    10.0   1_456     S
Er26     V64    10.0   1_556     S
Er27     V63    10.0   1_556     S
Er27     V61    10.0   1_656     S
Er28     V64    10.0   1_556     S
Er28     V62    10.0   1_556     S
V29     Er33    10.0   .     S
V29     Er39    10.0   1_455     S
V29     Er3    10.0   1_455     S
V29     Er11    10.0   1_455     S
V29     Er43    10.0   1_455     S
V29     Er34    10.0   .     S
V29     Er38    10.0   .     S
V29     Er41    10.0   .     S
V30     Er34    10.0   .     S
V30     Er40    10.0   1_455     S
V30     Er4    10.0   1_455     S
V30     Er12    10.0   1_455     S
V30     Er44    10.0   1_455     S
V30     Er33    10.0   1_565     S
V30     Er37    10.0   1_565     S
V30     Er42    10.0   .     S
V30     Er9    10.0   1_565     S
V30     Er5    10.0   1_565     S
V31     Er35    10.0   .     S
V31     Er37    10.0   .     S
V31     Er41    10.0   .     S
V31     Er36    10.0   .     S
V31     Er40    10.0   .     S
V31     Er43    10.0   .     S
V32     Er36    10.0   .     S
V32     Er38    10.0   .     S
V32     Er42    10.0   .     S
V32     Er35    10.0   1_565     S
V32     Er39    10.0   1_565     S
V32     Er44    10.0   .     S
V32     Er11    10.0   1_565     S
V32     Er7    10.0   1_565     S
Er33     V30    10.0   1_545     S
Er33     Ti57    10.0   .     S
Er34     Ti58    10.0   1_455     S
Er35     V32    10.0   1_545     S
Er35     Ti59    10.0   .     S
Er36     Ti60    10.0   .     S
Er37     V30    10.0   1_545     S
Er37     Ti59    10.0   .     S
Er38     Ti60    10.0   .     S
Er39     V29    10.0   1_655     S
Er39     V32    10.0   1_545     S
Er39     Ti57    10.0   1_655     S
Er40     V30    10.0   1_655     S
Er40     Ti58    10.0   .     S
Er41     Ti60    10.0   .     S
Er42     Ti59    10.0   1_565     S
Er43     V29    10.0   1_655     S
Er43     Ti58    10.0   .     S
Er44     V30    10.0   1_655     S
Er44     Ti57    10.0   1_665     S
Er45     Ti57    10.0   .     S
Er45     V93    10.0   .     S
Er45     V95    10.0   1_455     S
Er46     Ti58    10.0   1_455     S
Er46     V94    10.0   .     S
Er46     V96    10.0   1_455     S
Er47     Ti59    10.0   .     S
Er47     V95    10.0   .     S
Er47     V93    10.0   .     S
Er48     Ti60    10.0   .     S
Er48     V96    10.0   .     S
Er48     V94    10.0   .     S
Er49     Ti60    10.0   .     S
Er49     V93    10.0   .     S
Er49     V94    10.0   .     S
Er50     Ti59    10.0   1_565     S
Er50     V94    10.0   .     S
Er50     V93    10.0   1_565     S
Er51     Ti58    10.0   .     S
Er51     V95    10.0   .     S
Er51     V96    10.0   .     S
Er52     Ti57    10.0   1_665     S
Er52     V96    10.0   .     S
Er52     V95    10.0   1_565     S
Er53     Ti58    10.0   1_455     S
Er53     V94    10.0   .     S
Er53     V95    10.0   1_455     S
Er54     Ti57    10.0   1_565     S
Er54     V93    10.0   1_565     S
Er54     V96    10.0   1_455     S
Er55     Ti60    10.0   .     S
Er55     V96    10.0   .     S
Er55     V93    10.0   .     S
Er56     Ti59    10.0   1_565     S
Er56     V95    10.0   1_565     S
Er56     V94    10.0   .     S
Ti57     Er39    10.0   1_455     S
Ti57     Er44    10.0   1_445     S
Ti57     Er54    10.0   1_545     S
Ti57     Er52    10.0   1_445     S
Ti58     Er34    10.0   1_655     S
Ti58     Er53    10.0   1_655     S
Ti58     Er46    10.0   1_655     S
Ti59     Er42    10.0   1_545     S
Ti59     Er56    10.0   1_545     S
Ti59     Er50    10.0   1_545     S
V61     Er21    10.0   1_554     S
V61     Er25    10.0   1_554     S
V61     Er81    10.0   .     S
V61     Er89    10.0   .     S
V61     Er27    10.0   1_454     S
V61     Er19    10.0   1_454     S
V61     Er90    10.0   1_545     S
V61     Er86    10.0   1_545     S
V61     Er88    10.0   1_445     S
V61     Er84    10.0   1_445     S
V61     Er20    10.0   1_444     S
V61     Er24    10.0   1_444     S
V62     Er22    10.0   1_654     S
V62     Er26    10.0   1_654     S
V62     Er82    10.0   1_655     S
V62     Er90    10.0   1_655     S
V62     Er28    10.0   1_554     S
V62     Er20    10.0   1_554     S
V62     Er89    10.0   1_655     S
V62     Er85    10.0   1_655     S
V62     Er87    10.0   .     S
V62     Er83    10.0   .     S
V62     Er19    10.0   1_554     S
V62     Er23    10.0   1_554     S
V63     Er23    10.0   1_554     S
V63     Er27    10.0   1_554     S
V63     Er83    10.0   .     S
V63     Er91    10.0   .     S
V63     Er25    10.0   1_554     S
V63     Er17    10.0   1_554     S
V63     Er92    10.0   1_545     S
V63     Er88    10.0   1_545     S
V63     Er86    10.0   1_545     S
V63     Er82    10.0   1_545     S
V63     Er18    10.0   1_544     S
V63     Er22    10.0   1_544     S
V64     Er24    10.0   1_554     S
V64     Er28    10.0   1_554     S
V64     Er84    10.0   .     S
V64     Er92    10.0   .     S
V64     Er26    10.0   1_554     S
V64     Er18    10.0   1_554     S
V64     Er91    10.0   .     S
V64     Er87    10.0   .     S
V64     Er85    10.0   .     S
V64     Er81    10.0   .     S
V64     Er17    10.0   1_554     S
V64     Er21    10.0   1_554     S
Ti65     Er81    10.0   .     S
Ti65     Er85    10.0   .     S
Ti65     Er89    10.0   .     S
Ti65     Er73    10.0   .     S
Ti65     Er69    10.0   .     S
Ti65     Er77    10.0   .     S
Ti66     Er82    10.0   .     S
Ti66     Er86    10.0   .     S
Ti66     Er90    10.0   .     S
Ti66     Er74    10.0   .     S
Ti66     Er70    10.0   .     S
Ti66     Er78    10.0   .     S
Ti67     Er83    10.0   .     S
Ti67     Er87    10.0   .     S
Ti67     Er91    10.0   .     S
Ti67     Er75    10.0   .     S
Ti67     Er71    10.0   .     S
Ti67     Er79    10.0   .     S
Ti68     Er84    10.0   .     S
Ti68     Er88    10.0   .     S
Ti68     Er92    10.0   .     S
Ti68     Er76    10.0   .     S
Ti68     Er72    10.0   .     S
Ti68     Er80    10.0   .     S
Er69     V93    10.0   .     S
Er69     V94    10.0   .     S
Er70     V94    10.0   .     S
Er70     V93    10.0   1_565     S
Er71     V95    10.0   .     S
Er71     V96    10.0   .     S
Er72     V96    10.0   .     S
Er72     V95    10.0   1_565     S
Er73     V95    10.0   1_455     S
Er73     V94    10.0   .     S
Er74     V96    10.0   1_455     S
Er74     V93    10.0   1_565     S
Er75     V93    10.0   .     S
Er75     V96    10.0   .     S
Er76     V94    10.0   .     S
Er76     V95    10.0   1_565     S
Er77     V93    10.0   .     S
Er77     V95    10.0   1_455     S
Er78     V94    10.0   .     S
Er78     V96    10.0   1_455     S
Er79     V95    10.0   .     S
Er79     V93    10.0   .     S
Er80     V96    10.0   .     S
Er80     V94    10.0   .     S
Er82     V62    10.0   1_455     S
Er82     V63    10.0   1_565     S
Er84     V61    10.0   1_665     S
Er85     V62    10.0   1_455     S
Er86     V61    10.0   1_565     S
Er86     V63    10.0   1_565     S
Er88     V63    10.0   1_565     S
Er88     V61    10.0   1_665     S
Er89     V62    10.0   1_455     S
Er90     V62    10.0   1_455     S
Er90     V61    10.0   1_565     S
Er92     V63    10.0   1_565     S
V93     Er54    10.0   1_545     S
V93     Er70    10.0   1_545     S
V93     Er74    10.0   1_545     S
V93     Er50    10.0   1_545     S
V95     Er56    10.0   1_545     S
V95     Er73    10.0   1_655     S
V95     Er77    10.0   1_655     S
V95     Er53    10.0   1_655     S
V95     Er72    10.0   1_545     S
V95     Er76    10.0   1_545     S
V95     Er52    10.0   1_545     S
V95     Er45    10.0   1_655     S
V96     Er74    10.0   1_655     S
V96     Er78    10.0   1_655     S
V96     Er54    10.0   1_655     S
V96     Er46    10.0   1_655     S
