data_epx
_audit_creation_date              2019-12-31
_audit_creation_method            'Pymatgen'
_symmetry_space_group_name_H-M    'P1'
_symmetry_Int_Tables_number       1
loop_
_symmetry_equiv_pos_as_xyz
  x,y,z
_cell_length_a                    28.1932
_cell_length_b                    28.1932
_cell_length_c                    28.5561
_cell_angle_alpha                 90.0
_cell_angle_beta                 90.0
_cell_angle_gamma                 90.0
loop_
_atom_site_label
_atom_site_type_symbol
_atom_site_fract_x
_atom_site_fract_y
_atom_site_fract_z
Ti1     Ti     0.25   0.0   0.75
Ti2     Ti     0.25   0.5   0.75
Ti3     Ti     0.75   0.0   0.75
Ti4     Ti     0.75   0.5   0.75
Er5     Er     0.0   0.25   0.75
Er6     Er     0.0   0.75   0.75
Er7     Er     0.5   0.25   0.75
Er8     Er     0.5   0.75   0.75
Ti9     Ti     0.0   0.25   0.25
Ti10     Ti     0.0   0.75   0.25
Ti11     Ti     0.5   0.25   0.25
Ti12     Ti     0.5   0.75   0.25
Er13     Er     0.25   0.0   0.25
Er14     Er     0.25   0.5   0.25
Er15     Er     0.75   0.0   0.25
Er16     Er     0.75   0.5   0.25
V17     V     0.0   0.0   0.0
V18     V     0.0   0.5   0.0
V19     V     0.5   0.0   0.0
V20     V     0.5   0.5   0.0
V21     V     0.25   0.25   0.5
V22     V     0.25   0.75   0.5
V23     V     0.75   0.25   0.5
V24     V     0.75   0.75   0.5
loop_
_geom_bond_atom_site_label_1
_geom_bond_atom_site_label_2
_geom_bond_distance
_geom_bond_site_symmetry_2
_ccdc_geom_bond_type
Ti1     Er6    9.968   1_545     S
Ti1     Er7    9.968   .     S
Ti1     Er5    9.968   .     S
Ti1     Er8    9.968   1_545     S
Ti2     Er5    9.968   .     S
Ti2     Er8    9.968   .     S
Ti2     Er6    9.968   .     S
Ti2     Er7    9.968   .     S
Ti3     Er8    9.968   1_545     S
Ti3     Er5    9.968   1_655     S
Ti3     Er7    9.968   .     S
Ti3     Er6    9.968   1_645     S
Ti4     Er7    9.968   .     S
Ti4     Er6    9.968   1_655     S
Ti4     Er8    9.968   .     S
Ti4     Er5    9.968   1_655     S
Er5     V18    10.032   1_556     S
Er5     V17    10.032   1_556     S
Er5     V23    10.032   1_455     S
Er5     V21    10.032   .     S
Er5     Ti3    9.968   1_455     S
Er5     Ti4    9.968   1_455     S
Er6     V17    10.032   1_566     S
Er6     V18    10.032   1_556     S
Er6     V24    10.032   1_455     S
Er6     V22    10.032   .     S
Er6     Ti1    9.968   1_565     S
Er6     Ti4    9.968   1_455     S
Er6     Ti3    9.968   1_465     S
Er7     V20    10.032   1_556     S
Er7     V19    10.032   1_556     S
Er7     V21    10.032   .     S
Er7     V23    10.032   .     S
Er8     V19    10.032   1_566     S
Er8     V20    10.032   1_556     S
Er8     V22    10.032   .     S
Er8     V24    10.032   .     S
Er8     Ti3    9.968   1_565     S
Er8     Ti1    9.968   1_565     S
Ti9     Er15    9.968   1_455     S
Ti9     Er14    9.968   .     S
Ti9     Er16    9.968   1_455     S
Ti9     Er13    9.968   .     S
Ti10     Er16    9.968   1_455     S
Ti10     Er13    9.968   1_565     S
Ti10     Er15    9.968   1_465     S
Ti10     Er14    9.968   .     S
Ti11     Er13    9.968   .     S
Ti11     Er16    9.968   .     S
Ti11     Er14    9.968   .     S
Ti11     Er15    9.968   .     S
Ti12     Er14    9.968   .     S
Ti12     Er15    9.968   1_565     S
Ti12     Er13    9.968   1_565     S
Ti12     Er16    9.968   .     S
Er13     V19    10.032   .     S
Er13     V17    10.032   .     S
Er13     V22    10.032   1_545     S
Er13     V21    10.032   .     S
Er13     Ti10    9.968   1_545     S
Er13     Ti12    9.968   1_545     S
Er14     V20    10.032   .     S
Er14     V18    10.032   .     S
Er14     V21    10.032   .     S
Er14     V22    10.032   .     S
Er15     V17    10.032   1_655     S
Er15     V19    10.032   .     S
Er15     V24    10.032   1_545     S
Er15     V23    10.032   .     S
Er15     Ti9    9.968   1_655     S
Er15     Ti12    9.968   1_545     S
Er15     Ti10    9.968   1_645     S
Er16     V18    10.032   1_655     S
Er16     V20    10.032   .     S
Er16     V23    10.032   .     S
Er16     V24    10.032   .     S
Er16     Ti10    9.968   1_655     S
Er16     Ti9    9.968   1_655     S
V17     Er6    10.032   1_544     S
V17     Er5    10.032   1_554     S
V17     Er15    10.032   1_455     S
V18     Er5    10.032   1_554     S
V18     Er6    10.032   1_554     S
V18     Er16    10.032   1_455     S
V19     Er8    10.032   1_544     S
V19     Er7    10.032   1_554     S
V20     Er7    10.032   1_554     S
V20     Er8    10.032   1_554     S
V22     Er13    10.032   1_565     S
V23     Er5    10.032   1_655     S
V24     Er6    10.032   1_655     S
V24     Er15    10.032   1_565     S
