data_esg
_audit_creation_date              2019-12-31
_audit_creation_method            'Pymatgen'
_symmetry_space_group_name_H-M    'P1'
_symmetry_Int_Tables_number       1
loop_
_symmetry_equiv_pos_as_xyz
  x,y,z
_cell_length_a                    29.7725
_cell_length_b                    26.7024
_cell_length_c                    26.6751
_cell_angle_alpha                 90.0
_cell_angle_beta                 116.4394
_cell_angle_gamma                 90.0
loop_
_atom_site_label
_atom_site_type_symbol
_atom_site_fract_x
_atom_site_fract_y
_atom_site_fract_z
V1     V     0.8737   0.2499   0.6872
V2     V     0.8737   0.7499   0.6872
Er3     Er     0.5   0.25   0.5
Er4     Er     0.5   0.75   0.5
V5     V     0.1263   0.2501   0.3128
V6     V     0.1263   0.7501   0.3128
V7     V     0.6263   0.0001   0.3128
V8     V     0.6263   0.5001   0.3128
Er9     Er     0.0   0.0   0.5
Er10     Er     0.0   0.5   0.5
V11     V     0.3737   0.4999   0.6872
V12     V     0.3737   0.9999   0.6872
V13     V     0.8737   0.2501   0.1872
V14     V     0.8737   0.7501   0.1872
Er15     Er     0.5   0.25   0.0
Er16     Er     0.5   0.75   0.0
V17     V     0.1263   0.2499   0.8128
V18     V     0.1263   0.7499   0.8128
V19     V     0.6263   0.4999   0.8128
V20     V     0.6263   0.9999   0.8128
V21     V     0.3737   0.0001   0.1872
V22     V     0.3737   0.5001   0.1872
Er23     Er     0.0   0.0   0.0
Er24     Er     0.0   0.5   0.0
loop_
_geom_bond_atom_site_label_1
_geom_bond_atom_site_label_2
_geom_bond_distance
_geom_bond_site_symmetry_2
_ccdc_geom_bond_type
V1     Er10    10.018   1_655     S
V1     Er23    10.019   1_656     S
V1     Er3    9.963   .     S
V2     Er9    10.018   1_665     S
V2     Er24    10.019   1_656     S
V2     Er4    9.963   .     S
Er3     V8    10.018   .     S
Er3     V12    10.018   1_545     S
Er3     V21    10.019   .     S
Er3     V19    10.019   .     S
Er3     V5    9.963   .     S
Er4     V7    10.018   1_565     S
Er4     V11    10.018   .     S
Er4     V22    10.019   .     S
Er4     V20    10.019   .     S
Er4     V6    9.963   .     S
V5     Er9    10.018   .     S
V5     Er24    10.019   .     S
V6     Er10    10.018   .     S
V6     Er23    10.019   1_565     S
V7     Er4    10.018   1_545     S
V7     Er15    10.019   .     S
V7     Er9    9.963   1_655     S
V8     Er16    10.019   .     S
V8     Er10    9.963   1_655     S
Er9     V2    10.018   1_445     S
Er9     V14    10.019   1_445     S
Er9     V17    10.019   .     S
Er9     V7    9.963   1_455     S
Er9     V12    9.963   1_545     S
Er10     V1    10.018   1_455     S
Er10     V13    10.019   1_455     S
Er10     V18    10.019   .     S
Er10     V8    9.963   1_455     S
Er10     V11    9.963   .     S
V11     Er15    10.019   1_556     S
V12     Er3    10.018   1_565     S
V12     Er16    10.019   1_556     S
V12     Er9    9.963   1_565     S
V13     Er23    10.018   1_655     S
V13     Er10    10.019   1_655     S
V13     Er15    9.963   .     S
V14     Er24    10.018   1_655     S
V14     Er9    10.019   1_665     S
V14     Er16    9.963   .     S
Er15     V11    10.019   1_554     S
Er15     V22    10.018   .     S
Er15     V20    10.018   1_544     S
Er15     V17    9.963   1_554     S
Er16     V12    10.019   1_554     S
Er16     V21    10.018   1_565     S
Er16     V19    10.018   1_554     S
Er16     V18    9.963   1_554     S
V17     Er24    10.018   1_556     S
V17     Er15    9.963   1_556     S
V18     Er23    10.018   1_566     S
V18     Er16    9.963   1_556     S
V19     Er16    10.018   1_556     S
V19     Er24    9.963   1_656     S
V20     Er15    10.018   1_566     S
V20     Er23    9.963   1_666     S
V21     Er16    10.018   1_545     S
V21     Er23    9.963   .     S
V22     Er24    9.963   .     S
Er23     V1    10.019   1_454     S
Er23     V18    10.018   1_544     S
Er23     V13    10.018   1_455     S
Er23     V6    10.019   1_545     S
Er23     V20    9.963   1_444     S
Er24     V2    10.019   1_454     S
Er24     V17    10.018   1_554     S
Er24     V14    10.018   1_455     S
Er24     V19    9.963   1_454     S
