data_est
_audit_creation_date              2019-12-31
_audit_creation_method            'Pymatgen'
_symmetry_space_group_name_H-M    'P1'
_symmetry_Int_Tables_number       1
loop_
_symmetry_equiv_pos_as_xyz
  x,y,z
_cell_length_a                    30.0
_cell_length_b                    30.0
_cell_length_c                    34.1423
_cell_angle_alpha                 90.0
_cell_angle_beta                 90.0
_cell_angle_gamma                 90.0
loop_
_atom_site_label
_atom_site_type_symbol
_atom_site_fract_x
_atom_site_fract_y
_atom_site_fract_z
V1     V     0.25   0.25   0.1036
V2     V     0.25   0.5833   0.1036
V3     V     0.25   0.9167   0.1036
V4     V     0.5833   0.25   0.1036
V5     V     0.5833   0.5833   0.1036
V6     V     0.5833   0.9167   0.1036
V7     V     0.9167   0.25   0.1036
V8     V     0.9167   0.5833   0.1036
V9     V     0.9167   0.9167   0.1036
V10     V     0.0833   0.0833   0.8964
V11     V     0.0833   0.4167   0.8964
V12     V     0.0833   0.75   0.8964
V13     V     0.4167   0.0833   0.8964
V14     V     0.4167   0.4167   0.8964
V15     V     0.4167   0.75   0.8964
V16     V     0.75   0.0833   0.8964
V17     V     0.75   0.4167   0.8964
V18     V     0.75   0.75   0.8964
V19     V     0.25   0.25   0.3964
V20     V     0.25   0.5833   0.3964
V21     V     0.25   0.9167   0.3964
V22     V     0.5833   0.25   0.3964
V23     V     0.5833   0.5833   0.3964
V24     V     0.5833   0.9167   0.3964
V25     V     0.9167   0.25   0.3964
V26     V     0.9167   0.5833   0.3964
V27     V     0.9167   0.9167   0.3964
V28     V     0.0833   0.0833   0.6036
V29     V     0.0833   0.4167   0.6036
V30     V     0.0833   0.75   0.6036
V31     V     0.4167   0.0833   0.6036
V32     V     0.4167   0.4167   0.6036
V33     V     0.4167   0.75   0.6036
V34     V     0.75   0.0833   0.6036
V35     V     0.75   0.4167   0.6036
V36     V     0.75   0.75   0.6036
loop_
_geom_bond_atom_site_label_1
_geom_bond_atom_site_label_2
_geom_bond_distance
_geom_bond_site_symmetry_2
_ccdc_geom_bond_type
V1     V11    10.0   1_554     S
V1     V3    10.0   1_545     S
V1     V2    10.0   .     S
V1     V13    10.0   1_554     S
V1     V19    10.0   .     S
V2     V12    10.0   1_554     S
V2     V3    10.0   .     S
V2     V14    10.0   1_554     S
V2     V20    10.0   .     S
V3     V10    10.0   1_564     S
V3     V1    10.0   1_565     S
V3     V15    10.0   1_554     S
V3     V21    10.0   .     S
V4     V14    10.0   1_554     S
V4     V6    10.0   1_545     S
V4     V5    10.0   .     S
V4     V16    10.0   1_554     S
V4     V22    10.0   .     S
V5     V15    10.0   1_554     S
V5     V6    10.0   .     S
V5     V17    10.0   1_554     S
V5     V23    10.0   .     S
V6     V13    10.0   1_564     S
V6     V4    10.0   1_565     S
V6     V18    10.0   1_554     S
V6     V24    10.0   .     S
V7     V17    10.0   1_554     S
V7     V9    10.0   1_545     S
V7     V8    10.0   .     S
V7     V10    10.0   1_654     S
V7     V25    10.0   .     S
V8     V18    10.0   1_554     S
V8     V9    10.0   .     S
V8     V11    10.0   1_654     S
V8     V26    10.0   .     S
V9     V16    10.0   1_564     S
V9     V7    10.0   1_565     S
V9     V12    10.0   1_654     S
V9     V27    10.0   .     S
V10     V3    10.0   1_546     S
V10     V7    10.0   1_456     S
V10     V11    10.0   .     S
V10     V12    10.0   1_545     S
V10     V28    10.0   .     S
V11     V1    10.0   1_556     S
V11     V8    10.0   1_456     S
V11     V12    10.0   .     S
V11     V29    10.0   .     S
V12     V2    10.0   1_556     S
V12     V9    10.0   1_456     S
V12     V10    10.0   1_565     S
V12     V30    10.0   .     S
V13     V6    10.0   1_546     S
V13     V1    10.0   1_556     S
V13     V14    10.0   .     S
V13     V15    10.0   1_545     S
V13     V31    10.0   .     S
V14     V4    10.0   1_556     S
V14     V2    10.0   1_556     S
V14     V15    10.0   .     S
V14     V32    10.0   .     S
V15     V5    10.0   1_556     S
V15     V3    10.0   1_556     S
V15     V13    10.0   1_565     S
V15     V33    10.0   .     S
V16     V9    10.0   1_546     S
V16     V4    10.0   1_556     S
V16     V17    10.0   .     S
V16     V18    10.0   1_545     S
V16     V34    10.0   .     S
V17     V7    10.0   1_556     S
V17     V5    10.0   1_556     S
V17     V18    10.0   .     S
V17     V35    10.0   .     S
V18     V8    10.0   1_556     S
V18     V6    10.0   1_556     S
V18     V16    10.0   1_565     S
V18     V36    10.0   .     S
V19     V28    10.0   .     S
V19     V25    10.0   1_455     S
V19     V22    10.0   .     S
V19     V32    10.0   .     S
V20     V29    10.0   .     S
V20     V26    10.0   1_455     S
V20     V23    10.0   .     S
V20     V33    10.0   .     S
V21     V30    10.0   .     S
V21     V27    10.0   1_455     S
V21     V24    10.0   .     S
V21     V31    10.0   1_565     S
V22     V31    10.0   .     S
V22     V25    10.0   .     S
V22     V35    10.0   .     S
V23     V32    10.0   .     S
V23     V26    10.0   .     S
V23     V36    10.0   .     S
V24     V33    10.0   .     S
V24     V27    10.0   .     S
V24     V34    10.0   1_565     S
V25     V34    10.0   .     S
V25     V19    10.0   1_655     S
V25     V29    10.0   1_655     S
V26     V35    10.0   .     S
V26     V20    10.0   1_655     S
V26     V30    10.0   1_655     S
V27     V36    10.0   .     S
V27     V21    10.0   1_655     S
V27     V28    10.0   1_665     S
V28     V27    10.0   1_445     S
V28     V31    10.0   .     S
V28     V34    10.0   1_455     S
V29     V25    10.0   1_455     S
V29     V32    10.0   .     S
V29     V35    10.0   1_455     S
V30     V26    10.0   1_455     S
V30     V33    10.0   .     S
V30     V36    10.0   1_455     S
V31     V21    10.0   1_545     S
V31     V34    10.0   .     S
V32     V35    10.0   .     S
V33     V36    10.0   .     S
V34     V24    10.0   1_545     S
V34     V28    10.0   1_655     S
V35     V29    10.0   1_655     S
V36     V30    10.0   1_655     S
