data_eye
_audit_creation_date              2019-12-31
_audit_creation_method            'Pymatgen'
_symmetry_space_group_name_H-M    'P1'
_symmetry_Int_Tables_number       1
loop_
_symmetry_equiv_pos_as_xyz
  x,y,z
_cell_length_a                    40.0
_cell_length_b                    40.0
_cell_length_c                    32.6598
_cell_angle_alpha                 90.0
_cell_angle_beta                 90.0
_cell_angle_gamma                 120.0
loop_
_atom_site_label
_atom_site_type_symbol
_atom_site_fract_x
_atom_site_fract_y
_atom_site_fract_z
Er1     Er     0.3333   0.1667   0.25
Er2     Er     0.3333   0.1667   0.75
Er3     Er     0.3333   0.6667   0.25
Er4     Er     0.3333   0.6667   0.75
Er5     Er     0.8333   0.1667   0.25
Er6     Er     0.8333   0.1667   0.75
Er7     Er     0.8333   0.6667   0.25
Er8     Er     0.8333   0.6667   0.75
Er9     Er     0.1667   0.3333   0.25
Er10     Er     0.1667   0.3333   0.75
Er11     Er     0.1667   0.8333   0.25
Er12     Er     0.1667   0.8333   0.75
Er13     Er     0.6667   0.3333   0.25
Er14     Er     0.6667   0.3333   0.75
Er15     Er     0.6667   0.8333   0.25
Er16     Er     0.6667   0.8333   0.75
V17     V     0.25   0.25   0.0
V18     V     0.25   0.25   0.5
V19     V     0.25   0.75   0.0
V20     V     0.25   0.75   0.5
V21     V     0.75   0.25   0.0
V22     V     0.75   0.25   0.5
V23     V     0.75   0.75   0.0
V24     V     0.75   0.75   0.5
V25     V     0.0   0.25   0.0
V26     V     0.0   0.25   0.5
V27     V     1.0   0.75   0.0
V28     V     1.0   0.75   0.5
V29     V     0.5   0.25   0.0
V30     V     0.5   0.25   0.5
V31     V     0.5   0.75   0.0
V32     V     0.5   0.75   0.5
V33     V     0.25   0.0   0.0
V34     V     0.25   0.0   0.5
V35     V     0.25   0.5   0.0
V36     V     0.25   0.5   0.5
V37     V     0.75   0.0   0.0
V38     V     0.75   0.0   0.5
V39     V     0.75   0.5   0.0
V40     V     0.75   0.5   0.5
loop_
_geom_bond_atom_site_label_1
_geom_bond_atom_site_label_2
_geom_bond_distance
_geom_bond_site_symmetry_2
_ccdc_geom_bond_type
Er1     V17    10.0   .     S
Er1     V29    10.0   .     S
Er1     V33    10.0   .     S
Er1     V30    10.0   .     S
Er1     V18    10.0   .     S
Er1     V34    10.0   .     S
Er2     V18    10.0   .     S
Er2     V30    10.0   .     S
Er2     V34    10.0   .     S
Er2     V29    10.0   1_556     S
Er2     V17    10.0   1_556     S
Er2     V33    10.0   1_556     S
Er3     V19    10.0   .     S
Er3     V31    10.0   .     S
Er3     V35    10.0   .     S
Er3     V32    10.0   .     S
Er3     V20    10.0   .     S
Er3     V36    10.0   .     S
Er4     V20    10.0   .     S
Er4     V32    10.0   .     S
Er4     V36    10.0   .     S
Er4     V31    10.0   1_556     S
Er4     V19    10.0   1_556     S
Er4     V35    10.0   1_556     S
Er5     V21    10.0   .     S
Er5     V25    10.0   1_655     S
Er5     V37    10.0   .     S
Er5     V26    10.0   1_655     S
Er5     V22    10.0   .     S
Er5     V38    10.0   .     S
Er6     V22    10.0   .     S
Er6     V26    10.0   1_655     S
Er6     V38    10.0   .     S
Er6     V25    10.0   1_656     S
Er6     V21    10.0   1_556     S
Er6     V37    10.0   1_556     S
Er7     V23    10.0   .     S
Er7     V27    10.0   .     S
Er7     V39    10.0   .     S
Er7     V28    10.0   .     S
Er7     V24    10.0   .     S
Er7     V40    10.0   .     S
Er8     V24    10.0   .     S
Er8     V28    10.0   .     S
Er8     V40    10.0   .     S
Er8     V27    10.0   1_556     S
Er8     V23    10.0   1_556     S
Er8     V39    10.0   1_556     S
Er9     V18    10.0   .     S
Er9     V36    10.0   .     S
Er9     V26    10.0   .     S
Er9     V35    10.0   .     S
Er9     V17    10.0   .     S
Er9     V25    10.0   .     S
Er10     V17    10.0   1_556     S
Er10     V35    10.0   1_556     S
Er10     V25    10.0   1_556     S
Er10     V36    10.0   .     S
Er10     V18    10.0   .     S
Er10     V26    10.0   .     S
Er11     V20    10.0   .     S
Er11     V34    10.0   1_565     S
Er11     V28    10.0   1_455     S
Er11     V33    10.0   1_565     S
Er11     V19    10.0   .     S
Er11     V27    10.0   1_455     S
Er12     V19    10.0   1_556     S
Er12     V33    10.0   1_566     S
Er12     V27    10.0   1_456     S
Er12     V34    10.0   1_565     S
Er12     V20    10.0   .     S
Er12     V28    10.0   1_455     S
Er13     V22    10.0   .     S
Er13     V40    10.0   .     S
Er13     V30    10.0   .     S
Er13     V39    10.0   .     S
Er13     V21    10.0   .     S
Er13     V29    10.0   .     S
Er14     V21    10.0   1_556     S
Er14     V39    10.0   1_556     S
Er14     V29    10.0   1_556     S
Er14     V40    10.0   .     S
Er14     V22    10.0   .     S
Er14     V30    10.0   .     S
Er15     V24    10.0   .     S
Er15     V38    10.0   1_565     S
Er15     V32    10.0   .     S
Er15     V37    10.0   1_565     S
Er15     V23    10.0   .     S
Er15     V31    10.0   .     S
Er16     V23    10.0   1_556     S
Er16     V37    10.0   1_566     S
Er16     V31    10.0   1_556     S
Er16     V38    10.0   1_565     S
Er16     V24    10.0   .     S
Er16     V32    10.0   .     S
V17     Er2    10.0   1_554     S
V17     V29    10.0   .     S
V17     V33    10.0   .     S
V17     Er10    10.0   1_554     S
V17     V35    10.0   .     S
V17     V25    10.0   .     S
V18     V30    10.0   .     S
V18     V34    10.0   .     S
V18     V36    10.0   .     S
V18     V26    10.0   .     S
V19     Er4    10.0   1_554     S
V19     V31    10.0   .     S
V19     V35    10.0   .     S
V19     Er12    10.0   1_554     S
V19     V33    10.0   1_565     S
V19     V27    10.0   1_455     S
V20     V32    10.0   .     S
V20     V36    10.0   .     S
V20     V34    10.0   1_565     S
V20     V28    10.0   1_455     S
V21     Er6    10.0   1_554     S
V21     V25    10.0   1_655     S
V21     V37    10.0   .     S
V21     Er14    10.0   1_554     S
V21     V39    10.0   .     S
V21     V29    10.0   .     S
V22     V26    10.0   1_655     S
V22     V38    10.0   .     S
V22     V40    10.0   .     S
V22     V30    10.0   .     S
V23     Er8    10.0   1_554     S
V23     V27    10.0   .     S
V23     V39    10.0   .     S
V23     Er16    10.0   1_554     S
V23     V37    10.0   1_565     S
V23     V31    10.0   .     S
V24     V28    10.0   .     S
V24     V40    10.0   .     S
V24     V38    10.0   1_565     S
V24     V32    10.0   .     S
V25     Er5    10.0   1_455     S
V25     Er6    10.0   1_454     S
V25     V37    10.0   1_455     S
V25     V21    10.0   1_455     S
V25     Er10    10.0   1_554     S
V25     V35    10.0   .     S
V26     Er6    10.0   1_455     S
V26     Er5    10.0   1_455     S
V26     V38    10.0   1_455     S
V26     V22    10.0   1_455     S
V26     V36    10.0   .     S
V27     Er8    10.0   1_554     S
V27     V39    10.0   .     S
V27     Er12    10.0   1_654     S
V27     V33    10.0   1_665     S
V27     Er11    10.0   1_655     S
V27     V19    10.0   1_655     S
V28     V40    10.0   .     S
V28     Er11    10.0   1_655     S
V28     V34    10.0   1_665     S
V28     Er12    10.0   1_655     S
V28     V20    10.0   1_655     S
V29     Er2    10.0   1_554     S
V29     V33    10.0   .     S
V29     Er14    10.0   1_554     S
V29     V39    10.0   .     S
V30     V34    10.0   .     S
V30     V40    10.0   .     S
V31     Er4    10.0   1_554     S
V31     V35    10.0   .     S
V31     Er16    10.0   1_554     S
V31     V37    10.0   1_565     S
V32     V36    10.0   .     S
V32     V38    10.0   1_565     S
V33     Er2    10.0   1_554     S
V33     Er12    10.0   1_544     S
V33     V19    10.0   1_545     S
V33     V27    10.0   1_445     S
V33     Er11    10.0   1_545     S
V34     Er11    10.0   1_545     S
V34     V20    10.0   1_545     S
V34     V28    10.0   1_445     S
V34     Er12    10.0   1_545     S
V35     Er4    10.0   1_554     S
V35     Er10    10.0   1_554     S
V37     Er6    10.0   1_554     S
V37     V25    10.0   1_655     S
V37     Er16    10.0   1_544     S
V37     V23    10.0   1_545     S
V37     V31    10.0   1_545     S
V37     Er15    10.0   1_545     S
V38     V26    10.0   1_655     S
V38     Er15    10.0   1_545     S
V38     V24    10.0   1_545     S
V38     V32    10.0   1_545     S
V38     Er16    10.0   1_545     S
V39     Er8    10.0   1_554     S
V39     Er14    10.0   1_554     S
