data_feb
_audit_creation_date              2019-12-31
_audit_creation_method            'Pymatgen'
_symmetry_space_group_name_H-M    'P1'
_symmetry_Int_Tables_number       1
loop_
_symmetry_equiv_pos_as_xyz
  x,y,z
_cell_length_a                    38.108
_cell_length_b                    29.9997
_cell_length_c                    33.0248
_cell_angle_alpha                 90.0
_cell_angle_beta                 90.0
_cell_angle_gamma                 90.0
loop_
_atom_site_label
_atom_site_type_symbol
_atom_site_fract_x
_atom_site_fract_y
_atom_site_fract_z
V1     V     0.3407   0.0833   0.079
V2     V     0.3407   0.0833   0.579
V3     V     0.3407   0.4167   0.079
V4     V     0.3407   0.4167   0.579
V5     V     0.3407   0.75   0.079
V6     V     0.3407   0.75   0.579
V7     V     0.8407   0.0833   0.079
V8     V     0.8407   0.0833   0.579
V9     V     0.8407   0.4167   0.079
V10     V     0.8407   0.4167   0.579
V11     V     0.8407   0.75   0.079
V12     V     0.8407   0.75   0.579
V13     V     0.1593   0.25   0.421
V14     V     0.1593   0.25   0.921
V15     V     0.1593   0.5833   0.421
V16     V     0.1593   0.5833   0.921
V17     V     0.1593   0.9167   0.421
V18     V     0.1593   0.9167   0.921
V19     V     0.6593   0.25   0.421
V20     V     0.6593   0.25   0.921
V21     V     0.6593   0.5833   0.421
V22     V     0.6593   0.5833   0.921
V23     V     0.6593   0.9167   0.421
V24     V     0.6593   0.9167   0.921
V25     V     0.4093   0.25   0.329
V26     V     0.4093   0.25   0.829
V27     V     0.4093   0.5833   0.329
V28     V     0.4093   0.5833   0.829
V29     V     0.4093   0.9167   0.329
V30     V     0.4093   0.9167   0.829
V31     V     0.9093   0.25   0.329
V32     V     0.9093   0.25   0.829
V33     V     0.9093   0.5833   0.329
V34     V     0.9093   0.5833   0.829
V35     V     0.9093   0.9167   0.329
V36     V     0.9093   0.9167   0.829
V37     V     0.0907   0.0833   0.171
V38     V     0.0907   0.0833   0.671
V39     V     0.0907   0.4167   0.171
V40     V     0.0907   0.4167   0.671
V41     V     0.0907   0.75   0.171
V42     V     0.0907   0.75   0.671
V43     V     0.5907   0.0833   0.171
V44     V     0.5907   0.0833   0.671
V45     V     0.5907   0.4167   0.171
V46     V     0.5907   0.4167   0.671
V47     V     0.5907   0.75   0.171
V48     V     0.5907   0.75   0.671
loop_
_geom_bond_atom_site_label_1
_geom_bond_atom_site_label_2
_geom_bond_distance
_geom_bond_site_symmetry_2
_ccdc_geom_bond_type
V1     V37    10.0   .     S
V1     V26    10.0   1_554     S
V1     V30    10.0   1_544     S
V1     V18    10.0   1_544     S
V1     V3    10.0   .     S
V1     V5    10.0   1_545     S
V1     V14    10.0   1_554     S
V1     V43    10.0   .     S
V1     V25    10.0   .     S
V1     V29    10.0   1_545     S
V2     V38    10.0   .     S
V2     V25    10.0   .     S
V2     V29    10.0   1_545     S
V2     V17    10.0   1_545     S
V2     V4    10.0   .     S
V2     V6    10.0   1_545     S
V2     V13    10.0   .     S
V2     V44    10.0   .     S
V2     V26    10.0   .     S
V2     V30    10.0   1_545     S
V3     V39    10.0   .     S
V3     V28    10.0   1_554     S
V3     V26    10.0   1_554     S
V3     V14    10.0   1_554     S
V3     V5    10.0   .     S
V3     V16    10.0   1_554     S
V3     V45    10.0   .     S
V3     V27    10.0   .     S
V3     V25    10.0   .     S
V4     V40    10.0   .     S
V4     V27    10.0   .     S
V4     V25    10.0   .     S
V4     V13    10.0   .     S
V4     V6    10.0   .     S
V4     V15    10.0   .     S
V4     V46    10.0   .     S
V4     V28    10.0   .     S
V4     V26    10.0   .     S
V5     V41    10.0   .     S
V5     V30    10.0   1_554     S
V5     V28    10.0   1_554     S
V5     V16    10.0   1_554     S
V5     V1    10.0   1_565     S
V5     V18    10.0   1_554     S
V5     V47    10.0   .     S
V5     V29    10.0   .     S
V5     V27    10.0   .     S
V6     V42    10.0   .     S
V6     V29    10.0   .     S
V6     V27    10.0   .     S
V6     V15    10.0   .     S
V6     V2    10.0   1_565     S
V6     V17    10.0   .     S
V6     V48    10.0   .     S
V6     V30    10.0   .     S
V6     V28    10.0   .     S
V7     V43    10.0   .     S
V7     V32    10.0   1_554     S
V7     V36    10.0   1_544     S
V7     V24    10.0   1_544     S
V7     V9    10.0   .     S
V7     V11    10.0   1_545     S
V7     V20    10.0   1_554     S
V7     V37    10.0   1_655     S
V7     V31    10.0   .     S
V7     V35    10.0   1_545     S
V8     V44    10.0   .     S
V8     V31    10.0   .     S
V8     V35    10.0   1_545     S
V8     V23    10.0   1_545     S
V8     V10    10.0   .     S
V8     V12    10.0   1_545     S
V8     V19    10.0   .     S
V8     V38    10.0   1_655     S
V8     V32    10.0   .     S
V8     V36    10.0   1_545     S
V9     V45    10.0   .     S
V9     V34    10.0   1_554     S
V9     V32    10.0   1_554     S
V9     V20    10.0   1_554     S
V9     V11    10.0   .     S
V9     V22    10.0   1_554     S
V9     V39    10.0   1_655     S
V9     V33    10.0   .     S
V9     V31    10.0   .     S
V10     V46    10.0   .     S
V10     V33    10.0   .     S
V10     V31    10.0   .     S
V10     V19    10.0   .     S
V10     V12    10.0   .     S
V10     V21    10.0   .     S
V10     V40    10.0   1_655     S
V10     V34    10.0   .     S
V10     V32    10.0   .     S
V11     V47    10.0   .     S
V11     V36    10.0   1_554     S
V11     V34    10.0   1_554     S
V11     V22    10.0   1_554     S
V11     V7    10.0   1_565     S
V11     V24    10.0   1_554     S
V11     V41    10.0   1_655     S
V11     V35    10.0   .     S
V11     V33    10.0   .     S
V12     V48    10.0   .     S
V12     V35    10.0   .     S
V12     V33    10.0   .     S
V12     V21    10.0   .     S
V12     V8    10.0   1_565     S
V12     V23    10.0   .     S
V12     V42    10.0   1_655     S
V12     V36    10.0   .     S
V12     V34    10.0   .     S
V13     V40    10.0   .     S
V13     V38    10.0   .     S
V13     V25    10.0   .     S
V13     V31    10.0   1_455     S
V13     V37    10.0   .     S
V13     V39    10.0   .     S
V13     V17    10.0   1_545     S
V13     V15    10.0   .     S
V14     V39    10.0   1_556     S
V14     V37    10.0   1_556     S
V14     V26    10.0   .     S
V14     V32    10.0   1_455     S
V14     V38    10.0   .     S
V14     V40    10.0   .     S
V14     V3    10.0   1_556     S
V14     V18    10.0   1_545     S
V14     V16    10.0   .     S
V14     V1    10.0   1_556     S
V15     V42    10.0   .     S
V15     V40    10.0   .     S
V15     V27    10.0   .     S
V15     V33    10.0   1_455     S
V15     V39    10.0   .     S
V15     V41    10.0   .     S
V15     V17    10.0   .     S
V16     V41    10.0   1_556     S
V16     V39    10.0   1_556     S
V16     V28    10.0   .     S
V16     V34    10.0   1_455     S
V16     V40    10.0   .     S
V16     V42    10.0   .     S
V16     V5    10.0   1_556     S
V16     V18    10.0   .     S
V16     V3    10.0   1_556     S
V17     V38    10.0   1_565     S
V17     V42    10.0   .     S
V17     V29    10.0   .     S
V17     V35    10.0   1_455     S
V17     V41    10.0   .     S
V17     V37    10.0   1_565     S
V17     V2    10.0   1_565     S
V17     V13    10.0   1_565     S
V18     V37    10.0   1_566     S
V18     V41    10.0   1_556     S
V18     V30    10.0   .     S
V18     V36    10.0   1_455     S
V18     V42    10.0   .     S
V18     V38    10.0   1_565     S
V18     V1    10.0   1_566     S
V18     V14    10.0   1_565     S
V18     V5    10.0   1_556     S
V19     V46    10.0   .     S
V19     V44    10.0   .     S
V19     V31    10.0   .     S
V19     V25    10.0   .     S
V19     V43    10.0   .     S
V19     V45    10.0   .     S
V19     V23    10.0   1_545     S
V19     V21    10.0   .     S
V20     V45    10.0   1_556     S
V20     V43    10.0   1_556     S
V20     V32    10.0   .     S
V20     V26    10.0   .     S
V20     V44    10.0   .     S
V20     V46    10.0   .     S
V20     V9    10.0   1_556     S
V20     V24    10.0   1_545     S
V20     V22    10.0   .     S
V20     V7    10.0   1_556     S
V21     V48    10.0   .     S
V21     V46    10.0   .     S
V21     V33    10.0   .     S
V21     V27    10.0   .     S
V21     V45    10.0   .     S
V21     V47    10.0   .     S
V21     V23    10.0   .     S
V22     V47    10.0   1_556     S
V22     V45    10.0   1_556     S
V22     V34    10.0   .     S
V22     V28    10.0   .     S
V22     V46    10.0   .     S
V22     V48    10.0   .     S
V22     V11    10.0   1_556     S
V22     V24    10.0   .     S
V22     V9    10.0   1_556     S
V23     V44    10.0   1_565     S
V23     V48    10.0   .     S
V23     V35    10.0   .     S
V23     V29    10.0   .     S
V23     V47    10.0   .     S
V23     V43    10.0   1_565     S
V23     V8    10.0   1_565     S
V23     V19    10.0   1_565     S
V24     V43    10.0   1_566     S
V24     V47    10.0   1_556     S
V24     V36    10.0   .     S
V24     V30    10.0   .     S
V24     V48    10.0   .     S
V24     V44    10.0   1_565     S
V24     V7    10.0   1_566     S
V24     V20    10.0   1_565     S
V24     V11    10.0   1_556     S
V25     V45    10.0   .     S
V25     V29    10.0   1_545     S
V25     V27    10.0   .     S
V25     V43    10.0   .     S
V26     V1    10.0   1_556     S
V26     V3    10.0   1_556     S
V26     V46    10.0   .     S
V26     V30    10.0   1_545     S
V26     V28    10.0   .     S
V26     V44    10.0   .     S
V27     V47    10.0   .     S
V27     V29    10.0   .     S
V27     V45    10.0   .     S
V28     V3    10.0   1_556     S
V28     V5    10.0   1_556     S
V28     V48    10.0   .     S
V28     V30    10.0   .     S
V28     V46    10.0   .     S
V29     V2    10.0   1_565     S
V29     V43    10.0   1_565     S
V29     V25    10.0   1_565     S
V29     V47    10.0   .     S
V29     V1    10.0   1_565     S
V30     V5    10.0   1_556     S
V30     V1    10.0   1_566     S
V30     V44    10.0   1_565     S
V30     V26    10.0   1_565     S
V30     V48    10.0   .     S
V30     V2    10.0   1_565     S
V31     V13    10.0   1_655     S
V31     V39    10.0   1_655     S
V31     V35    10.0   1_545     S
V31     V33    10.0   .     S
V31     V37    10.0   1_655     S
V32     V7    10.0   1_556     S
V32     V9    10.0   1_556     S
V32     V14    10.0   1_655     S
V32     V40    10.0   1_655     S
V32     V36    10.0   1_545     S
V32     V34    10.0   .     S
V32     V38    10.0   1_655     S
V33     V15    10.0   1_655     S
V33     V41    10.0   1_655     S
V33     V35    10.0   .     S
V33     V39    10.0   1_655     S
V34     V9    10.0   1_556     S
V34     V11    10.0   1_556     S
V34     V16    10.0   1_655     S
V34     V42    10.0   1_655     S
V34     V36    10.0   .     S
V34     V40    10.0   1_655     S
V35     V8    10.0   1_565     S
V35     V17    10.0   1_655     S
V35     V37    10.0   1_665     S
V35     V31    10.0   1_565     S
V35     V41    10.0   1_655     S
V35     V7    10.0   1_565     S
V36     V11    10.0   1_556     S
V36     V7    10.0   1_566     S
V36     V18    10.0   1_655     S
V36     V38    10.0   1_665     S
V36     V32    10.0   1_565     S
V36     V42    10.0   1_655     S
V36     V8    10.0   1_565     S
V37     V18    10.0   1_544     S
V37     V14    10.0   1_554     S
V37     V17    10.0   1_545     S
V37     V35    10.0   1_445     S
V37     V31    10.0   1_455     S
V37     V39    10.0   .     S
V37     V41    10.0   1_545     S
V37     V7    10.0   1_455     S
V38     V17    10.0   1_545     S
V38     V18    10.0   1_545     S
V38     V36    10.0   1_445     S
V38     V32    10.0   1_455     S
V38     V40    10.0   .     S
V38     V42    10.0   1_545     S
V38     V8    10.0   1_455     S
V39     V14    10.0   1_554     S
V39     V16    10.0   1_554     S
V39     V31    10.0   1_455     S
V39     V33    10.0   1_455     S
V39     V41    10.0   .     S
V39     V9    10.0   1_455     S
V40     V32    10.0   1_455     S
V40     V34    10.0   1_455     S
V40     V42    10.0   .     S
V40     V10    10.0   1_455     S
V41     V16    10.0   1_554     S
V41     V18    10.0   1_554     S
V41     V33    10.0   1_455     S
V41     V35    10.0   1_455     S
V41     V37    10.0   1_565     S
V41     V11    10.0   1_455     S
V42     V34    10.0   1_455     S
V42     V36    10.0   1_455     S
V42     V38    10.0   1_565     S
V42     V12    10.0   1_455     S
V43     V24    10.0   1_544     S
V43     V20    10.0   1_554     S
V43     V23    10.0   1_545     S
V43     V29    10.0   1_545     S
V43     V45    10.0   .     S
V43     V47    10.0   1_545     S
V44     V23    10.0   1_545     S
V44     V24    10.0   1_545     S
V44     V30    10.0   1_545     S
V44     V46    10.0   .     S
V44     V48    10.0   1_545     S
V45     V20    10.0   1_554     S
V45     V22    10.0   1_554     S
V45     V47    10.0   .     S
V46     V48    10.0   .     S
V47     V22    10.0   1_554     S
V47     V24    10.0   1_554     S
V47     V43    10.0   1_565     S
V48     V44    10.0   1_565     S
