data_fet
_audit_creation_date              2019-12-31
_audit_creation_method            'Pymatgen'
_symmetry_space_group_name_H-M    'P1'
_symmetry_Int_Tables_number       1
loop_
_symmetry_equiv_pos_as_xyz
  x,y,z
_cell_length_a                    34.1421
_cell_length_b                    34.1421
_cell_length_c                    30.0
_cell_angle_alpha                 90.0
_cell_angle_beta                 90.0
_cell_angle_gamma                 90.0
loop_
_atom_site_label
_atom_site_type_symbol
_atom_site_fract_x
_atom_site_fract_y
_atom_site_fract_z
Er1     Er     0.8534   0.3534   0.0
Er2     Er     0.8534   0.3534   0.3333
Er3     Er     0.8534   0.3534   0.6667
V4     V     0.6462   0.1462   0.0
V5     V     0.6462   0.1462   0.3333
V6     V     0.6462   0.1462   0.6667
Er7     Er     0.6466   0.8534   0.0
Er8     Er     0.6466   0.8534   0.3333
Er9     Er     0.6466   0.8534   0.6667
V10     V     0.8538   0.6462   0.0
V11     V     0.8538   0.6462   0.3333
V12     V     0.8538   0.6462   0.6667
Er13     Er     0.3534   0.1466   0.0
Er14     Er     0.3534   0.1466   0.3333
Er15     Er     0.3534   0.1466   0.6667
V16     V     0.1462   0.3538   0.0
V17     V     0.1462   0.3538   0.3333
V18     V     0.1462   0.3538   0.6667
Er19     Er     0.1466   0.6466   0.0
Er20     Er     0.1466   0.6466   0.3333
Er21     Er     0.1466   0.6466   0.6667
V22     V     0.3538   0.8538   0.0
V23     V     0.3538   0.8538   0.3333
V24     V     0.3538   0.8538   0.6667
loop_
_geom_bond_atom_site_label_1
_geom_bond_atom_site_label_2
_geom_bond_distance
_geom_bond_site_symmetry_2
_ccdc_geom_bond_type
Er1     V4    10.0   .     S
Er1     Er2    10.0   .     S
Er1     Er3    10.0   1_554     S
Er1     V10    10.0   .     S
Er1     V16    10.0   1_655     S
Er2     V5    10.0   .     S
Er2     Er3    10.0   .     S
Er2     V11    10.0   .     S
Er2     V17    10.0   1_655     S
Er3     V6    10.0   .     S
Er3     Er1    10.0   1_556     S
Er3     V12    10.0   .     S
Er3     V18    10.0   1_655     S
V4     Er7    10.0   1_545     S
V4     Er13    10.0   .     S
V5     Er8    10.0   1_545     S
V5     Er14    10.0   .     S
V6     Er9    10.0   1_545     S
V6     Er15    10.0   .     S
Er7     V4    10.0   1_565     S
Er7     V10    10.0   .     S
Er7     Er8    10.0   .     S
Er7     Er9    10.0   1_554     S
Er7     V22    10.0   .     S
Er8     V5    10.0   1_565     S
Er8     V11    10.0   .     S
Er8     Er9    10.0   .     S
Er8     V23    10.0   .     S
Er9     V6    10.0   1_565     S
Er9     V12    10.0   .     S
Er9     Er7    10.0   1_556     S
Er9     V24    10.0   .     S
V10     Er19    10.0   1_655     S
V11     Er20    10.0   1_655     S
V12     Er21    10.0   1_655     S
Er13     V16    10.0   .     S
Er13     Er14    10.0   .     S
Er13     Er15    10.0   1_554     S
Er13     V22    10.0   1_545     S
Er14     V17    10.0   .     S
Er14     Er15    10.0   .     S
Er14     V23    10.0   1_545     S
Er15     V18    10.0   .     S
Er15     Er13    10.0   1_556     S
Er15     V24    10.0   1_545     S
V16     Er1    10.0   1_455     S
V16     Er19    10.0   .     S
V17     Er2    10.0   1_455     S
V17     Er20    10.0   .     S
V18     Er3    10.0   1_455     S
V18     Er21    10.0   .     S
Er19     V22    10.0   .     S
Er19     Er20    10.0   .     S
Er19     Er21    10.0   1_554     S
Er19     V10    10.0   1_455     S
Er20     V23    10.0   .     S
Er20     Er21    10.0   .     S
Er20     V11    10.0   1_455     S
Er21     V24    10.0   .     S
Er21     Er19    10.0   1_556     S
Er21     V12    10.0   1_455     S
V22     Er13    10.0   1_565     S
V23     Er14    10.0   1_565     S
V24     Er15    10.0   1_565     S
