data_ffc
_audit_creation_date              2019-12-31
_audit_creation_method            'Pymatgen'
_symmetry_space_group_name_H-M    'P1'
_symmetry_Int_Tables_number       1
loop_
_symmetry_equiv_pos_as_xyz
  x,y,z
_cell_length_a                    33.3225
_cell_length_b                    33.3225
_cell_length_c                    29.8336
_cell_angle_alpha                 90.0
_cell_angle_beta                 90.0
_cell_angle_gamma                 90.0
loop_
_atom_site_label
_atom_site_type_symbol
_atom_site_fract_x
_atom_site_fract_y
_atom_site_fract_z
V1     V     0.5   0.0   0.0
V2     V     0.5   0.0   0.5
Ti3     Ti     0.5   0.1999   0.25
Ti4     Ti     0.5   0.1999   0.75
Ti5     Ti     0.5   0.8001   0.25
Ti6     Ti     0.5   0.8001   0.75
V7     V     0.0   0.5   0.0
V8     V     0.0   0.5   0.5
Ti9     Ti     0.1999   0.5   0.25
Ti10     Ti     0.1999   0.5   0.75
Ti11     Ti     0.8001   0.5   0.25
Ti12     Ti     0.8001   0.5   0.75
Er13     Er     0.5   0.5   0.25
Er14     Er     0.5   0.5   0.75
loop_
_geom_bond_atom_site_label_1
_geom_bond_atom_site_label_2
_geom_bond_distance
_geom_bond_site_symmetry_2
_ccdc_geom_bond_type
V1     Ti6    10.0   1_544     S
V1     Ti5    10.0   1_545     S
V1     Ti4    10.0   1_554     S
V1     Ti3    10.0   .     S
V2     Ti5    10.0   1_545     S
V2     Ti6    10.0   1_545     S
V2     Ti3    10.0   .     S
V2     Ti4    10.0   .     S
Ti3     Er13    10.0   .     S
Ti4     V1    10.0   1_556     S
Ti4     Er14    10.0   .     S
Ti5     V2    10.0   1_565     S
Ti5     V1    10.0   1_565     S
Ti5     Er13    10.0   .     S
Ti6     V1    10.0   1_566     S
Ti6     V2    10.0   1_565     S
Ti6     Er14    10.0   .     S
V7     Ti12    10.0   1_454     S
V7     Ti11    10.0   1_455     S
V7     Ti10    10.0   1_554     S
V7     Ti9    10.0   .     S
V8     Ti11    10.0   1_455     S
V8     Ti12    10.0   1_455     S
V8     Ti9    10.0   .     S
V8     Ti10    10.0   .     S
Ti9     Er13    10.0   .     S
Ti10     V7    10.0   1_556     S
Ti10     Er14    10.0   .     S
Ti11     V8    10.0   1_655     S
Ti11     V7    10.0   1_655     S
Ti11     Er13    10.0   .     S
Ti12     V7    10.0   1_656     S
Ti12     V8    10.0   1_655     S
Ti12     Er14    10.0   .     S
