data_fga
_audit_creation_date              2019-12-31
_audit_creation_method            'Pymatgen'
_symmetry_space_group_name_H-M    'P1'
_symmetry_Int_Tables_number       1
loop_
_symmetry_equiv_pos_as_xyz
  x,y,z
_cell_length_a                    32.616
_cell_length_b                    55.1904
_cell_length_c                    27.9111
_cell_angle_alpha                 90.0
_cell_angle_beta                 90.0
_cell_angle_gamma                 90.0
loop_
_atom_site_label
_atom_site_type_symbol
_atom_site_fract_x
_atom_site_fract_y
_atom_site_fract_z
V1     V     0.1291   0.7719   0.3963
V2     V     0.6291   0.7719   0.3963
V3     V     0.1291   0.7281   0.1037
V4     V     0.6291   0.7281   0.1037
Er5     Er     0.3783   0.8185   0.2069
Er6     Er     0.8783   0.8185   0.2069
Er7     Er     0.3783   0.6815   0.2931
Er8     Er     0.8783   0.6815   0.2931
Ti9     Ti     0.1283   0.9093   0.1033
Ti10     Ti     0.6283   0.9093   0.1033
Ti11     Ti     0.3783   0.9093   0.8967
Ti12     Ti     0.8783   0.9093   0.8967
Ti13     Ti     0.1283   0.5907   0.3967
Ti14     Ti     0.6283   0.5907   0.3967
Ti15     Ti     0.3783   0.5907   0.6033
Ti16     Ti     0.8783   0.5907   0.6033
V17     V     0.3791   0.7719   0.6037
V18     V     0.8791   0.7719   0.6037
V19     V     0.3791   0.7281   0.8963
V20     V     0.8791   0.7281   0.8963
Er21     Er     0.1283   0.6815   0.7069
Er22     Er     0.6283   0.6815   0.7069
Er23     Er     0.1283   0.8185   0.7931
Er24     Er     0.6283   0.8185   0.7931
Ti25     Ti     0.1217   0.4093   0.3967
Ti26     Ti     0.6217   0.4093   0.3967
Ti27     Ti     0.3717   0.4093   0.6033
Ti28     Ti     0.8717   0.4093   0.6033
V29     V     0.1209   0.2719   0.1037
V30     V     0.6209   0.2719   0.1037
V31     V     0.1209   0.2281   0.3963
V32     V     0.6209   0.2281   0.3963
Er33     Er     0.3717   0.3185   0.2931
Er34     Er     0.8717   0.3185   0.2931
Er35     Er     0.3717   0.1815   0.2069
Er36     Er     0.8717   0.1815   0.2069
Ti37     Ti     0.3717   0.0907   0.8967
Ti38     Ti     0.8717   0.0907   0.8967
Ti39     Ti     0.1217   0.0907   0.1033
Ti40     Ti     0.6217   0.0907   0.1033
V41     V     0.3709   0.2719   0.8963
V42     V     0.8709   0.2719   0.8963
V43     V     0.3709   0.2281   0.6037
V44     V     0.8709   0.2281   0.6037
Er45     Er     0.1217   0.3185   0.7069
Er46     Er     0.6217   0.3185   0.7069
Er47     Er     0.1217   0.1815   0.7931
Er48     Er     0.6217   0.1815   0.7931
loop_
_geom_bond_atom_site_label_1
_geom_bond_atom_site_label_2
_geom_bond_distance
_geom_bond_site_symmetry_2
_ccdc_geom_bond_type
V1     Er5    10.032   .     S
V1     V17    10.0   .     S
V1     V18    10.0   1_455     S
V1     Er21    10.004   .     S
V1     Ti13    10.002   .     S
V1     Er8    10.006   1_455     S
V1     Er7    9.965   .     S
V2     Er6    10.032   .     S
V2     V18    10.0   .     S
V2     V17    10.0   .     S
V2     Er22    10.004   .     S
V2     Ti14    10.002   .     S
V2     Er7    10.006   .     S
V2     Er8    9.965   .     S
V3     Er7    10.032   .     S
V3     V19    10.0   1_554     S
V3     V20    10.0   1_454     S
V3     Er23    10.004   1_554     S
V3     Ti9    10.002   .     S
V3     Er6    10.006   1_455     S
V3     Er5    9.965   .     S
V4     Er8    10.032   .     S
V4     V20    10.0   1_554     S
V4     V19    10.0   1_554     S
V4     Er24    10.004   1_554     S
V4     Ti10    10.002   .     S
V4     Er5    10.006   .     S
V4     Er6    9.965   .     S
Er5     V19    10.004   1_554     S
Er5     Ti9    9.998   .     S
Er5     Ti11    10.002   1_554     S
Er5     Ti10    9.997   .     S
Er6     V20    10.004   1_554     S
Er6     Ti10    9.998   .     S
Er6     Ti12    10.002   1_554     S
Er6     Ti9    9.997   1_655     S
Er6     V3    10.006   1_655     S
Er7     V17    10.004   .     S
Er7     Ti13    9.998   .     S
Er7     Ti15    10.002   .     S
Er7     Ti14    9.997   .     S
Er8     V18    10.004   .     S
Er8     Ti14    9.998   .     S
Er8     Ti16    10.002   .     S
Er8     Ti13    9.997   1_655     S
Er8     V1    10.006   1_655     S
Ti9     Ti39    10.015   1_565     S
Ti9     Er6    9.997   1_455     S
Ti9     Ti12    9.986   1_454     S
Ti9     Ti11    9.986   1_554     S
Ti9     Er23    10.002   1_554     S
Ti10     Ti40    10.015   1_565     S
Ti10     Ti11    9.986   1_554     S
Ti10     Ti12    9.986   1_554     S
Ti10     Er24    10.002   1_554     S
Ti11     Ti37    10.015   1_565     S
Ti11     Er5    10.002   1_556     S
Ti11     Ti10    9.986   1_556     S
Ti11     Ti9    9.986   1_556     S
Ti11     V19    10.002   .     S
Ti11     Er24    9.998   .     S
Ti11     Er23    9.997   .     S
Ti12     Ti38    10.015   1_565     S
Ti12     Er6    10.002   1_556     S
Ti12     Ti9    9.986   1_656     S
Ti12     Ti10    9.986   1_556     S
Ti12     V20    10.002   .     S
Ti12     Er23    9.998   1_655     S
Ti12     Er24    9.997   .     S
Ti13     Ti25    10.015   .     S
Ti13     Er8    9.997   1_455     S
Ti13     Ti15    9.986   .     S
Ti13     Ti16    9.986   1_455     S
Ti13     Er21    10.002   .     S
Ti14     Ti26    10.015   .     S
Ti14     Ti16    9.986   .     S
Ti14     Ti15    9.986   .     S
Ti14     Er22    10.002   .     S
Ti15     Ti27    10.015   .     S
Ti15     V17    10.002   .     S
Ti15     Er22    9.998   .     S
Ti15     Er21    9.997   .     S
Ti16     Ti28    10.015   .     S
Ti16     Ti13    9.986   1_655     S
Ti16     V18    10.002   .     S
Ti16     Er21    9.998   1_655     S
Ti16     Er22    9.997   .     S
V17     Er24    10.032   .     S
V17     Er21    10.006   .     S
V17     Er22    9.965   .     S
V18     Er23    10.032   1_655     S
V18     V1    10.0   1_655     S
V18     Er22    10.006   .     S
V18     Er21    9.965   1_655     S
V19     Er22    10.032   .     S
V19     V3    10.0   1_556     S
V19     Er5    10.004   1_556     S
V19     V4    10.0   1_556     S
V19     Er23    10.006   .     S
V19     Er24    9.965   .     S
V20     Er21    10.032   1_655     S
V20     V4    10.0   1_556     S
V20     Er6    10.004   1_556     S
V20     V3    10.0   1_656     S
V20     Er24    10.006   .     S
V20     Er23    9.965   1_655     S
Er21     V20    10.032   1_455     S
Er21     Ti16    9.998   1_455     S
Er21     V18    9.965   1_455     S
Er23     V18    10.032   1_455     S
Er23     V3    10.004   1_556     S
Er23     Ti12    9.998   1_455     S
Er23     Ti9    10.002   1_556     S
Er23     V20    9.965   1_455     S
Er24     V4    10.004   1_556     S
Er24     Ti10    10.002   1_556     S
Ti25     Ti27    9.986   .     S
Ti25     Ti28    9.986   1_455     S
Ti25     V31    10.002   .     S
Ti25     Er34    9.998   1_455     S
Ti25     Er33    9.997   .     S
Ti25     Er45    10.002   .     S
Ti26     Ti28    9.986   .     S
Ti26     Ti27    9.986   .     S
Ti26     V32    10.002   .     S
Ti26     Er33    9.998   .     S
Ti26     Er34    9.997   .     S
Ti26     Er46    10.002   .     S
Ti27     Er33    10.002   .     S
Ti27     V43    10.002   .     S
Ti27     Er45    9.998   .     S
Ti27     Er46    9.997   .     S
Ti28     Ti25    9.986   1_655     S
Ti28     Er34    10.002   .     S
Ti28     V44    10.002   .     S
Ti28     Er46    9.998   .     S
Ti28     Er45    9.997   1_655     S
V29     Er34    10.032   1_455     S
V29     V41    10.0   1_554     S
V29     Er47    10.004   1_554     S
V29     V42    10.0   1_454     S
V29     Ti39    10.002   .     S
V29     Er35    10.006   .     S
V29     Er36    9.965   1_455     S
V30     Er33    10.032   .     S
V30     V42    10.0   1_554     S
V30     Er48    10.004   1_554     S
V30     V41    10.0   1_554     S
V30     Ti40    10.002   .     S
V30     Er36    10.006   .     S
V30     Er35    9.965   .     S
V31     Er36    10.032   1_455     S
V31     V43    10.0   .     S
V31     Er45    10.004   .     S
V31     V44    10.0   1_455     S
V31     Er33    10.006   .     S
V31     Er34    9.965   1_455     S
V32     Er35    10.032   .     S
V32     V44    10.0   .     S
V32     Er46    10.004   .     S
V32     V43    10.0   .     S
V32     Er34    10.006   .     S
V32     Er33    9.965   .     S
Er33     V43    10.004   .     S
Er34     V29    10.032   1_655     S
Er34     V44    10.004   .     S
Er34     Ti25    9.998   1_655     S
Er34     V31    9.965   1_655     S
Er35     V41    10.004   1_554     S
Er35     Ti40    9.998   .     S
Er35     Ti37    10.002   1_554     S
Er35     Ti39    9.997   .     S
Er36     V31    10.032   1_655     S
Er36     V42    10.004   1_554     S
Er36     Ti39    9.998   1_655     S
Er36     Ti38    10.002   1_554     S
Er36     Ti40    9.997   .     S
Er36     V29    9.965   1_655     S
Ti37     Ti11    10.015   1_545     S
Ti37     Er35    10.002   1_556     S
Ti37     Ti40    9.986   1_556     S
Ti37     Ti39    9.986   1_556     S
Ti37     V41    10.002   .     S
Ti37     Er47    9.998   .     S
Ti37     Er48    9.997   .     S
Ti38     Ti12    10.015   1_545     S
Ti38     Er36    10.002   1_556     S
Ti38     Ti39    9.986   1_656     S
Ti38     Ti40    9.986   1_556     S
Ti38     V42    10.002   .     S
Ti38     Er48    9.998   .     S
Ti38     Er47    9.997   1_655     S
Ti39     Ti9    10.015   1_545     S
Ti39     Er36    9.998   1_455     S
Ti39     Ti38    9.986   1_454     S
Ti39     Ti37    9.986   1_554     S
Ti39     Er47    10.002   1_554     S
Ti40     Ti10    10.015   1_545     S
Ti40     Ti37    9.986   1_554     S
Ti40     Ti38    9.986   1_554     S
Ti40     Er48    10.002   1_554     S
V41     Er45    10.032   .     S
V41     V29    10.0   1_556     S
V41     V30    10.0   1_556     S
V41     Er35    10.004   1_556     S
V41     Er48    10.006   .     S
V41     Er47    9.965   .     S
V42     Er46    10.032   .     S
V42     V30    10.0   1_556     S
V42     V29    10.0   1_656     S
V42     Er36    10.004   1_556     S
V42     Er47    10.006   1_655     S
V42     Er48    9.965   .     S
V43     Er47    10.032   .     S
V43     Er46    10.006   .     S
V43     Er45    9.965   .     S
V44     Er48    10.032   .     S
V44     V31    10.0   1_655     S
V44     Er45    10.006   1_655     S
V44     Er46    9.965   .     S
Er45     Ti28    9.997   1_455     S
Er45     V44    10.006   1_455     S
Er47     V29    10.004   1_556     S
Er47     Ti39    10.002   1_556     S
Er47     Ti38    9.997   1_455     S
Er47     V42    10.006   1_455     S
Er48     V30    10.004   1_556     S
Er48     Ti40    10.002   1_556     S
