data_fit-e
_audit_creation_date              2019-12-31
_audit_creation_method            'Pymatgen'
_symmetry_space_group_name_H-M    'P1'
_symmetry_Int_Tables_number       1
loop_
_symmetry_equiv_pos_as_xyz
  x,y,z
_cell_length_a                    28.2844
_cell_length_b                    28.2844
_cell_length_c                    24.142
_cell_angle_alpha                 90.0
_cell_angle_beta                 90.0
_cell_angle_gamma                 90.0
loop_
_atom_site_label
_atom_site_type_symbol
_atom_site_fract_x
_atom_site_fract_y
_atom_site_fract_z
Er1     Er     0.0   0.25   0.7071
Er2     Er     0.0   0.75   0.7071
Er3     Er     0.5   0.25   0.7071
Er4     Er     0.5   0.75   0.7071
Er5     Er     0.25   0.0   0.7071
Er6     Er     0.25   0.5   0.7071
Er7     Er     0.75   0.0   0.7071
Er8     Er     0.75   0.5   0.7071
Er9     Er     0.0   0.25   0.2929
Er10     Er     0.0   0.75   0.2929
Er11     Er     0.5   0.25   0.2929
Er12     Er     0.5   0.75   0.2929
Er13     Er     0.25   0.0   0.2929
Er14     Er     0.25   0.5   0.2929
Er15     Er     0.75   0.0   0.2929
Er16     Er     0.75   0.5   0.2929
V17     V     0.0   0.0   0.0
V18     V     0.0   0.5   0.0
V19     V     0.5   0.0   0.0
V20     V     0.5   0.5   0.0
loop_
_geom_bond_atom_site_label_1
_geom_bond_atom_site_label_2
_geom_bond_distance
_geom_bond_site_symmetry_2
_ccdc_geom_bond_type
Er1     V18    10.0   1_556     S
Er1     Er6    10.0   .     S
Er1     V17    10.0   1_556     S
Er1     Er5    10.0   .     S
Er1     Er7    10.0   1_455     S
Er1     Er8    10.0   1_455     S
Er1     Er9    10.0   .     S
Er2     V17    10.0   1_566     S
Er2     Er5    10.0   1_565     S
Er2     V18    10.0   1_556     S
Er2     Er6    10.0   .     S
Er2     Er8    10.0   1_455     S
Er2     Er7    10.0   1_465     S
Er2     Er10    10.0   .     S
Er3     V20    10.0   1_556     S
Er3     Er8    10.0   .     S
Er3     V19    10.0   1_556     S
Er3     Er7    10.0   .     S
Er3     Er5    10.0   .     S
Er3     Er6    10.0   .     S
Er3     Er11    10.0   .     S
Er4     V19    10.0   1_566     S
Er4     Er7    10.0   1_565     S
Er4     V20    10.0   1_556     S
Er4     Er8    10.0   .     S
Er4     Er6    10.0   .     S
Er4     Er5    10.0   1_565     S
Er4     Er12    10.0   .     S
Er5     Er2    10.0   1_545     S
Er5     V17    10.0   1_556     S
Er5     V19    10.0   1_556     S
Er5     Er4    10.0   1_545     S
Er5     Er13    10.0   .     S
Er6     V18    10.0   1_556     S
Er6     V20    10.0   1_556     S
Er6     Er14    10.0   .     S
Er7     Er4    10.0   1_545     S
Er7     V19    10.0   1_556     S
Er7     V17    10.0   1_656     S
Er7     Er1    10.0   1_655     S
Er7     Er2    10.0   1_645     S
Er7     Er15    10.0   .     S
Er8     V20    10.0   1_556     S
Er8     V18    10.0   1_656     S
Er8     Er2    10.0   1_655     S
Er8     Er1    10.0   1_655     S
Er8     Er16    10.0   .     S
Er9     V17    10.0   .     S
Er9     Er13    10.0   .     S
Er9     V18    10.0   .     S
Er9     Er14    10.0   .     S
Er9     Er15    10.0   1_455     S
Er9     Er16    10.0   1_455     S
Er10     V18    10.0   .     S
Er10     Er14    10.0   .     S
Er10     V17    10.0   1_565     S
Er10     Er13    10.0   1_565     S
Er10     Er16    10.0   1_455     S
Er10     Er15    10.0   1_465     S
Er11     V19    10.0   .     S
Er11     Er15    10.0   .     S
Er11     V20    10.0   .     S
Er11     Er16    10.0   .     S
Er11     Er13    10.0   .     S
Er11     Er14    10.0   .     S
Er12     V20    10.0   .     S
Er12     Er16    10.0   .     S
Er12     V19    10.0   1_565     S
Er12     Er15    10.0   1_565     S
Er12     Er14    10.0   .     S
Er12     Er13    10.0   1_565     S
Er13     Er10    10.0   1_545     S
Er13     V17    10.0   .     S
Er13     V19    10.0   .     S
Er13     Er12    10.0   1_545     S
Er14     V18    10.0   .     S
Er14     V20    10.0   .     S
Er15     Er12    10.0   1_545     S
Er15     V19    10.0   .     S
Er15     V17    10.0   1_655     S
Er15     Er9    10.0   1_655     S
Er15     Er10    10.0   1_645     S
Er16     V20    10.0   .     S
Er16     V18    10.0   1_655     S
Er16     Er10    10.0   1_655     S
Er16     Er9    10.0   1_655     S
V17     Er2    10.0   1_544     S
V17     Er1    10.0   1_554     S
V17     Er5    10.0   1_554     S
V17     Er7    10.0   1_454     S
V17     Er10    10.0   1_545     S
V17     Er15    10.0   1_455     S
V18     Er1    10.0   1_554     S
V18     Er2    10.0   1_554     S
V18     Er6    10.0   1_554     S
V18     Er8    10.0   1_454     S
V18     Er16    10.0   1_455     S
V19     Er4    10.0   1_544     S
V19     Er3    10.0   1_554     S
V19     Er7    10.0   1_554     S
V19     Er5    10.0   1_554     S
V19     Er12    10.0   1_545     S
V20     Er3    10.0   1_554     S
V20     Er4    10.0   1_554     S
V20     Er8    10.0   1_554     S
V20     Er6    10.0   1_554     S
