data_fit
_audit_creation_date              2019-12-31
_audit_creation_method            'Pymatgen'
_symmetry_space_group_name_H-M    'P1'
_symmetry_Int_Tables_number       1
loop_
_symmetry_equiv_pos_as_xyz
  x,y,z
_cell_length_a                    26.6652
_cell_length_b                    26.6652
_cell_length_c                    26.6696
_cell_angle_alpha                 90.0
_cell_angle_beta                 90.0
_cell_angle_gamma                 90.0
loop_
_atom_site_label
_atom_site_type_symbol
_atom_site_fract_x
_atom_site_fract_y
_atom_site_fract_z
Er1     Er     0.0   0.0   0.625
Er2     Er     0.0   0.5   0.625
Er3     Er     0.5   0.0   0.625
Er4     Er     0.5   0.5   0.625
V5     V     0.25   0.25   0.5
V6     V     0.25   0.75   0.5
V7     V     0.75   0.25   0.5
V8     V     0.75   0.75   0.5
Er9     Er     0.0   0.0   0.375
Er10     Er     0.0   0.5   0.375
Er11     Er     0.5   0.0   0.375
Er12     Er     0.5   0.5   0.375
Er13     Er     0.25   0.25   0.875
Er14     Er     0.25   0.75   0.875
Er15     Er     0.75   0.25   0.875
Er16     Er     0.75   0.75   0.875
V17     V     0.0   0.0   0.0
V18     V     0.0   0.5   0.0
V19     V     0.5   0.0   0.0
V20     V     0.5   0.5   0.0
Er21     Er     0.25   0.25   0.125
Er22     Er     0.25   0.75   0.125
Er23     Er     0.75   0.25   0.125
Er24     Er     0.75   0.75   0.125
loop_
_geom_bond_atom_site_label_1
_geom_bond_atom_site_label_2
_geom_bond_distance
_geom_bond_site_symmetry_2
_ccdc_geom_bond_type
Er1     V7    10.0   1_455     S
Er1     V5    10.0   .     S
Er1     V6    10.0   1_545     S
Er1     V8    10.0   1_445     S
Er1     V17    10.0   1_556     S
Er2     V8    10.0   1_455     S
Er2     V6    10.0   .     S
Er2     V5    10.0   .     S
Er2     V7    10.0   1_455     S
Er2     V18    10.0   1_556     S
Er3     V5    10.0   .     S
Er3     V7    10.0   .     S
Er3     V8    10.0   1_545     S
Er3     V6    10.0   1_545     S
Er3     V19    10.0   1_556     S
Er4     V6    10.0   .     S
Er4     V8    10.0   .     S
Er4     V7    10.0   .     S
Er4     V5    10.0   .     S
Er4     V20    10.0   1_556     S
V5     Er11    10.0   .     S
V5     Er9    10.0   .     S
V5     Er10    10.0   .     S
V5     Er12    10.0   .     S
V5     Er13    10.0   .     S
V5     Er21    10.0   .     S
V6     Er12    10.0   .     S
V6     Er10    10.0   .     S
V6     Er1    10.0   1_565     S
V6     Er9    10.0   1_565     S
V6     Er3    10.0   1_565     S
V6     Er11    10.0   1_565     S
V6     Er14    10.0   .     S
V6     Er22    10.0   .     S
V7     Er1    10.0   1_655     S
V7     Er9    10.0   1_655     S
V7     Er11    10.0   .     S
V7     Er12    10.0   .     S
V7     Er2    10.0   1_655     S
V7     Er10    10.0   1_655     S
V7     Er15    10.0   .     S
V7     Er23    10.0   .     S
V8     Er2    10.0   1_655     S
V8     Er10    10.0   1_655     S
V8     Er12    10.0   .     S
V8     Er3    10.0   1_565     S
V8     Er11    10.0   1_565     S
V8     Er1    10.0   1_665     S
V8     Er9    10.0   1_665     S
V8     Er16    10.0   .     S
V8     Er24    10.0   .     S
Er9     V7    10.0   1_455     S
Er9     V6    10.0   1_545     S
Er9     V8    10.0   1_445     S
Er9     V17    10.0   .     S
Er10     V8    10.0   1_455     S
Er10     V7    10.0   1_455     S
Er10     V18    10.0   .     S
Er11     V8    10.0   1_545     S
Er11     V6    10.0   1_545     S
Er11     V19    10.0   .     S
Er12     V20    10.0   .     S
Er13     V20    10.0   1_556     S
Er13     V19    10.0   1_556     S
Er13     V18    10.0   1_556     S
Er13     V17    10.0   1_556     S
Er14     V19    10.0   1_566     S
Er14     V20    10.0   1_556     S
Er14     V17    10.0   1_566     S
Er14     V18    10.0   1_556     S
Er15     V18    10.0   1_656     S
Er15     V17    10.0   1_656     S
Er15     V20    10.0   1_556     S
Er15     V19    10.0   1_556     S
Er16     V17    10.0   1_666     S
Er16     V18    10.0   1_656     S
Er16     V19    10.0   1_566     S
Er16     V20    10.0   1_556     S
V17     Er24    10.0   1_445     S
V17     Er16    10.0   1_444     S
V17     Er23    10.0   1_455     S
V17     Er15    10.0   1_454     S
V17     Er22    10.0   1_545     S
V17     Er14    10.0   1_544     S
V17     Er21    10.0   .     S
V17     Er13    10.0   1_554     S
V17     Er1    10.0   1_554     S
V18     Er23    10.0   1_455     S
V18     Er15    10.0   1_454     S
V18     Er24    10.0   1_455     S
V18     Er16    10.0   1_454     S
V18     Er21    10.0   .     S
V18     Er13    10.0   1_554     S
V18     Er22    10.0   .     S
V18     Er14    10.0   1_554     S
V18     Er2    10.0   1_554     S
V19     Er22    10.0   1_545     S
V19     Er14    10.0   1_544     S
V19     Er21    10.0   .     S
V19     Er13    10.0   1_554     S
V19     Er24    10.0   1_545     S
V19     Er16    10.0   1_544     S
V19     Er23    10.0   .     S
V19     Er15    10.0   1_554     S
V19     Er3    10.0   1_554     S
V20     Er21    10.0   .     S
V20     Er13    10.0   1_554     S
V20     Er22    10.0   .     S
V20     Er14    10.0   1_554     S
V20     Er23    10.0   .     S
V20     Er15    10.0   1_554     S
V20     Er24    10.0   .     S
V20     Er16    10.0   1_554     S
V20     Er4    10.0   1_554     S
Er22     V19    10.0   1_565     S
Er22     V17    10.0   1_565     S
Er23     V18    10.0   1_655     S
Er23     V17    10.0   1_655     S
Er24     V17    10.0   1_665     S
Er24     V18    10.0   1_655     S
Er24     V19    10.0   1_565     S
