data_flt
_audit_creation_date              2019-12-31
_audit_creation_method            'Pymatgen'
_symmetry_space_group_name_H-M    'P1'
_symmetry_Int_Tables_number       1
loop_
_symmetry_equiv_pos_as_xyz
  x,y,z
_cell_length_a                    36.0266
_cell_length_b                    36.0266
_cell_length_c                    37.3806
_cell_angle_alpha                 90.0
_cell_angle_beta                 90.0
_cell_angle_gamma                 90.0
loop_
_atom_site_label
_atom_site_type_symbol
_atom_site_fract_x
_atom_site_fract_y
_atom_site_fract_z
Er1     Er     0.0   0.0   0.5
Er2     Er     0.0   0.5   0.5
Er3     Er     0.5   0.0   0.5
Er4     Er     0.5   0.5   0.5
V5     V     0.0   0.25   0.3838
V6     V     0.0   0.75   0.3838
V7     V     0.5   0.25   0.3838
V8     V     0.5   0.75   0.3838
V9     V     0.25   0.0   0.3838
V10     V     0.25   0.5   0.3838
V11     V     0.75   0.0   0.3838
V12     V     0.75   0.5   0.3838
V13     V     0.25   0.0   0.6162
V14     V     0.25   0.5   0.6162
V15     V     0.75   0.0   0.6162
V16     V     0.75   0.5   0.6162
V17     V     0.0   0.25   0.6162
V18     V     0.0   0.75   0.6162
V19     V     0.5   0.25   0.6162
V20     V     0.5   0.75   0.6162
V21     V     0.25   0.0   0.1162
V22     V     0.25   0.5   0.1162
V23     V     0.75   0.0   0.1162
V24     V     0.75   0.5   0.1162
Er25     Er     0.25   0.25   0.0
Er26     Er     0.25   0.75   0.0
Er27     Er     0.75   0.25   0.0
Er28     Er     0.75   0.75   0.0
V29     V     0.0   0.25   0.1162
V30     V     0.0   0.75   0.1162
V31     V     0.5   0.25   0.1162
V32     V     0.5   0.75   0.1162
V33     V     0.25   0.0   0.8838
V34     V     0.25   0.5   0.8838
V35     V     0.75   0.0   0.8838
V36     V     0.75   0.5   0.8838
V37     V     0.0   0.25   0.8838
V38     V     0.0   0.75   0.8838
V39     V     0.5   0.25   0.8838
V40     V     0.5   0.75   0.8838
loop_
_geom_bond_atom_site_label_1
_geom_bond_atom_site_label_2
_geom_bond_distance
_geom_bond_site_symmetry_2
_ccdc_geom_bond_type
Er1     V11    10.0   1_455     S
Er1     V15    10.0   1_455     S
Er1     V5    10.0   .     S
Er1     V17    10.0   .     S
Er1     V6    10.0   1_545     S
Er1     V18    10.0   1_545     S
Er1     V9    10.0   .     S
Er1     V13    10.0   .     S
Er2     V12    10.0   1_455     S
Er2     V16    10.0   1_455     S
Er2     V6    10.0   .     S
Er2     V18    10.0   .     S
Er2     V5    10.0   .     S
Er2     V17    10.0   .     S
Er2     V10    10.0   .     S
Er2     V14    10.0   .     S
Er3     V9    10.0   .     S
Er3     V13    10.0   .     S
Er3     V7    10.0   .     S
Er3     V19    10.0   .     S
Er3     V8    10.0   1_545     S
Er3     V20    10.0   1_545     S
Er3     V11    10.0   .     S
Er3     V15    10.0   .     S
Er4     V10    10.0   .     S
Er4     V14    10.0   .     S
Er4     V8    10.0   .     S
Er4     V20    10.0   .     S
Er4     V7    10.0   .     S
Er4     V19    10.0   .     S
Er4     V12    10.0   .     S
Er4     V16    10.0   .     S
V5     V29    10.0   .     S
V6     Er1    10.0   1_565     S
V6     V30    10.0   .     S
V7     V31    10.0   .     S
V8     Er3    10.0   1_565     S
V8     V32    10.0   .     S
V9     V21    10.0   .     S
V10     V22    10.0   .     S
V11     Er1    10.0   1_655     S
V11     V23    10.0   .     S
V12     Er2    10.0   1_655     S
V12     V24    10.0   .     S
V13     V33    10.0   .     S
V14     V34    10.0   .     S
V15     Er1    10.0   1_655     S
V15     V35    10.0   .     S
V16     Er2    10.0   1_655     S
V16     V36    10.0   .     S
V17     V37    10.0   .     S
V18     Er1    10.0   1_565     S
V18     V38    10.0   .     S
V19     V39    10.0   .     S
V20     Er3    10.0   1_565     S
V20     V40    10.0   .     S
V21     Er26    10.0   1_545     S
V21     Er25    10.0   .     S
V22     Er25    10.0   .     S
V22     Er26    10.0   .     S
V23     Er28    10.0   1_545     S
V23     Er27    10.0   .     S
V24     Er27    10.0   .     S
V24     Er28    10.0   .     S
Er25     V37    10.0   1_554     S
Er25     V29    10.0   .     S
Er25     V34    10.0   1_554     S
Er25     V39    10.0   1_554     S
Er25     V31    10.0   .     S
Er25     V33    10.0   1_554     S
Er26     V38    10.0   1_554     S
Er26     V30    10.0   .     S
Er26     V33    10.0   1_564     S
Er26     V21    10.0   1_565     S
Er26     V40    10.0   1_554     S
Er26     V32    10.0   .     S
Er26     V34    10.0   1_554     S
Er27     V39    10.0   1_554     S
Er27     V31    10.0   .     S
Er27     V36    10.0   1_554     S
Er27     V37    10.0   1_654     S
Er27     V29    10.0   1_655     S
Er27     V35    10.0   1_554     S
Er28     V40    10.0   1_554     S
Er28     V32    10.0   .     S
Er28     V35    10.0   1_564     S
Er28     V23    10.0   1_565     S
Er28     V38    10.0   1_654     S
Er28     V30    10.0   1_655     S
Er28     V36    10.0   1_554     S
V29     Er27    10.0   1_455     S
V30     Er28    10.0   1_455     S
V33     Er26    10.0   1_546     S
V33     Er25    10.0   1_556     S
V34     Er25    10.0   1_556     S
V34     Er26    10.0   1_556     S
V35     Er28    10.0   1_546     S
V35     Er27    10.0   1_556     S
V36     Er27    10.0   1_556     S
V36     Er28    10.0   1_556     S
V37     Er25    10.0   1_556     S
V37     Er27    10.0   1_456     S
V38     Er26    10.0   1_556     S
V38     Er28    10.0   1_456     S
V39     Er27    10.0   1_556     S
V39     Er25    10.0   1_556     S
V40     Er28    10.0   1_556     S
V40     Er26    10.0   1_556     S
