data_fly
_audit_creation_date              2019-12-31
_audit_creation_method            'Pymatgen'
_symmetry_space_group_name_H-M    'P1'
_symmetry_Int_Tables_number       1
loop_
_symmetry_equiv_pos_as_xyz
  x,y,z
_cell_length_a                    28.3652
_cell_length_b                    39.9998
_cell_length_c                    28.203
_cell_angle_alpha                 90.0
_cell_angle_beta                 90.0
_cell_angle_gamma                 90.0
loop_
_atom_site_label
_atom_site_type_symbol
_atom_site_fract_x
_atom_site_fract_y
_atom_site_fract_z
Er1     Er     0.75   0.0   0.25
Er2     Er     0.75   0.5   0.25
Er3     Er     0.75   0.25   0.25
Er4     Er     0.75   0.75   0.25
Er5     Er     0.75   0.25   0.75
Er6     Er     0.75   0.75   0.75
Er7     Er     0.75   0.0   0.75
Er8     Er     0.75   0.5   0.75
Er9     Er     0.25   0.0   0.75
Er10     Er     0.25   0.5   0.75
Er11     Er     0.25   0.25   0.75
Er12     Er     0.25   0.75   0.75
V13     V     0.5   0.0   0.5
V14     V     0.5   0.5   0.5
V15     V     0.5   0.25   0.5
V16     V     0.5   0.75   0.5
Er17     Er     0.25   0.0   0.25
Er18     Er     0.25   0.5   0.25
Er19     Er     0.25   0.25   0.25
Er20     Er     0.25   0.75   0.25
V21     V     0.0   0.0   0.0
V22     V     0.0   0.5   0.0
V23     V     0.0   0.25   0.0
V24     V     0.0   0.75   0.0
loop_
_geom_bond_atom_site_label_1
_geom_bond_atom_site_label_2
_geom_bond_distance
_geom_bond_site_symmetry_2
_ccdc_geom_bond_type
Er1     Er4    10.0   1_545     S
Er1     V13    10.0   .     S
Er1     V21    10.0   1_655     S
Er2     Er3    10.0   .     S
Er2     V14    10.0   .     S
Er2     V22    10.0   1_655     S
Er3     V15    10.0   .     S
Er3     V23    10.0   1_655     S
Er4     Er1    10.0   1_565     S
Er4     V16    10.0   .     S
Er4     V24    10.0   1_655     S
Er5     Er7    10.0   .     S
Er5     V15    10.0   .     S
Er5     V23    10.0   1_656     S
Er6     Er8    10.0   .     S
Er6     V16    10.0   .     S
Er6     V24    10.0   1_656     S
Er7     V21    10.0   1_656     S
Er7     V13    10.0   .     S
Er8     V22    10.0   1_656     S
Er8     V14    10.0   .     S
Er9     Er11    10.0   .     S
Er9     V13    10.0   .     S
Er9     V21    10.0   1_556     S
Er10     Er12    10.0   .     S
Er10     V14    10.0   .     S
Er10     V22    10.0   1_556     S
Er11     V15    10.0   .     S
Er11     V23    10.0   1_556     S
Er12     V16    10.0   .     S
Er12     V24    10.0   1_556     S
V13     V16    10.0   1_545     S
V13     V15    10.0   .     S
V13     Er17    10.0   .     S
V14     V15    10.0   .     S
V14     V16    10.0   .     S
V14     Er18    10.0   .     S
V15     Er19    10.0   .     S
V16     V13    10.0   1_565     S
V16     Er20    10.0   .     S
Er17     Er20    10.0   1_545     S
Er17     V21    10.0   .     S
Er18     Er19    10.0   .     S
Er18     V22    10.0   .     S
Er19     V23    10.0   .     S
Er20     Er17    10.0   1_565     S
Er20     V24    10.0   .     S
V21     Er1    10.0   1_455     S
V21     Er7    10.0   1_454     S
V21     V24    10.0   1_545     S
V21     V23    10.0   .     S
V21     Er9    10.0   1_554     S
V22     Er2    10.0   1_455     S
V22     Er8    10.0   1_454     S
V22     V23    10.0   .     S
V22     V24    10.0   .     S
V22     Er10    10.0   1_554     S
V23     Er3    10.0   1_455     S
V23     Er5    10.0   1_454     S
V23     Er11    10.0   1_554     S
V24     Er4    10.0   1_455     S
V24     Er6    10.0   1_454     S
V24     V21    10.0   1_565     S
V24     Er12    10.0   1_554     S
