data_fnc
_audit_creation_date              2019-12-31
_audit_creation_method            'Pymatgen'
_symmetry_space_group_name_H-M    'P1'
_symmetry_Int_Tables_number       1
loop_
_symmetry_equiv_pos_as_xyz
  x,y,z
_cell_length_a                    62.66
_cell_length_b                    62.66
_cell_length_c                    30.0
_cell_angle_alpha                 90.0
_cell_angle_beta                 90.0
_cell_angle_gamma                 120.0
loop_
_atom_site_label
_atom_site_type_symbol
_atom_site_fract_x
_atom_site_fract_y
_atom_site_fract_z
V1     V     0.2465   0.9131   0.1111
V2     V     0.2465   0.9131   0.4444
V3     V     0.2465   0.9131   0.7778
V4     V     0.4202   0.0   0.0
V5     V     0.4202   0.0   0.3333
V6     V     0.4202   0.0   0.6667
V7     V     0.3333   0.0869   0.2222
V8     V     0.3333   0.0869   0.5556
V9     V     0.3333   0.0869   0.8889
V10     V     0.7535   0.0869   0.2222
V11     V     0.7535   0.0869   0.5556
V12     V     0.7535   0.0869   0.8889
V13     V     0.5798   0.0   0.0
V14     V     0.5798   0.0   0.3333
V15     V     0.5798   0.0   0.6667
V16     V     0.6667   0.9131   0.1111
V17     V     0.6667   0.9131   0.4444
V18     V     0.6667   0.9131   0.7778
V19     V     0.3333   0.2465   0.2222
V20     V     0.3333   0.2465   0.5556
V21     V     0.3333   0.2465   0.8889
V22     V     0.2465   0.3333   0.1111
V23     V     0.2465   0.3333   0.4444
V24     V     0.2465   0.3333   0.7778
V25     V     0.4202   0.4202   0.0
V26     V     0.4202   0.4202   0.3333
V27     V     0.4202   0.4202   0.6667
V28     V     0.7535   0.6667   0.2222
V29     V     0.7535   0.6667   0.5556
V30     V     0.7535   0.6667   0.8889
V31     V     0.6667   0.7535   0.1111
V32     V     0.6667   0.7535   0.4444
V33     V     0.6667   0.7535   0.7778
V34     V     0.5798   0.5798   0.0
V35     V     0.5798   0.5798   0.3333
V36     V     0.5798   0.5798   0.6667
V37     V     0.0869   0.7535   0.1111
V38     V     0.0869   0.7535   0.4444
V39     V     0.0869   0.7535   0.7778
V40     V     1.0   0.5798   0.0
V41     V     1.0   0.5798   0.3333
V42     V     1.0   0.5798   0.6667
V43     V     0.9131   0.6667   0.2222
V44     V     0.9131   0.6667   0.5556
V45     V     0.9131   0.6667   0.8889
V46     V     0.9131   0.2465   0.2222
V47     V     0.9131   0.2465   0.5556
V48     V     0.9131   0.2465   0.8889
V49     V     1.0   0.4202   0.0
V50     V     1.0   0.4202   0.3333
V51     V     1.0   0.4202   0.6667
V52     V     0.0869   0.3333   0.1111
V53     V     0.0869   0.3333   0.4444
V54     V     0.0869   0.3333   0.7778
loop_
_geom_bond_atom_site_label_1
_geom_bond_atom_site_label_2
_geom_bond_distance
_geom_bond_site_symmetry_2
_ccdc_geom_bond_type
V1     V7    10.0   1_565     S
V1     V4    10.0   1_565     S
V1     V2    10.0   .     S
V1     V3    10.0   1_554     S
V1     V37    10.001   .     S
V2     V8    10.0   1_565     S
V2     V5    10.0   1_565     S
V2     V3    10.0   .     S
V2     V38    10.001   .     S
V3     V9    10.0   1_565     S
V3     V6    10.0   1_565     S
V3     V1    10.0   1_556     S
V3     V39    10.001   .     S
V4     V9    10.0   1_554     S
V4     V1    10.0   1_545     S
V4     V5    10.0   .     S
V4     V6    10.0   1_554     S
V4     V13    10.001   .     S
V5     V7    10.0   .     S
V5     V2    10.0   1_545     S
V5     V6    10.0   .     S
V5     V14    10.001   .     S
V6     V8    10.0   .     S
V6     V3    10.0   1_545     S
V6     V4    10.0   1_556     S
V6     V15    10.001   .     S
V7     V1    10.0   1_545     S
V7     V9    10.0   1_554     S
V7     V8    10.0   .     S
V7     V19    10.001   .     S
V8     V2    10.0   1_545     S
V8     V9    10.0   .     S
V8     V20    10.001   .     S
V9     V3    10.0   1_545     S
V9     V4    10.0   1_556     S
V9     V7    10.0   1_556     S
V9     V21    10.001   .     S
V10     V16    10.0   1_545     S
V10     V14    10.0   .     S
V10     V12    10.0   1_554     S
V10     V11    10.0   .     S
V10     V46    10.001   .     S
V11     V17    10.0   1_545     S
V11     V15    10.0   .     S
V11     V12    10.0   .     S
V11     V47    10.001   .     S
V12     V18    10.0   1_545     S
V12     V13    10.0   1_556     S
V12     V10    10.0   1_556     S
V12     V48    10.001   .     S
V13     V12    10.0   1_554     S
V13     V16    10.0   1_545     S
V13     V14    10.0   .     S
V13     V15    10.0   1_554     S
V14     V17    10.0   1_545     S
V14     V15    10.0   .     S
V15     V18    10.0   1_545     S
V15     V13    10.0   1_556     S
V16     V10    10.0   1_565     S
V16     V13    10.0   1_565     S
V16     V17    10.0   .     S
V16     V18    10.0   1_554     S
V16     V31    10.001   .     S
V17     V11    10.0   1_565     S
V17     V14    10.0   1_565     S
V17     V18    10.0   .     S
V17     V32    10.001   .     S
V18     V12    10.0   1_565     S
V18     V15    10.0   1_565     S
V18     V16    10.0   1_556     S
V18     V33    10.001   .     S
V19     V22    10.0   .     S
V19     V26    10.0   .     S
V19     V21    10.0   1_554     S
V19     V20    10.0   .     S
V20     V23    10.0   .     S
V20     V27    10.0   .     S
V20     V21    10.0   .     S
V21     V24    10.0   .     S
V21     V25    10.0   1_556     S
V21     V19    10.0   1_556     S
V22     V25    10.0   .     S
V22     V23    10.0   .     S
V22     V24    10.0   1_554     S
V22     V52    10.001   .     S
V23     V26    10.0   .     S
V23     V24    10.0   .     S
V23     V53    10.001   .     S
V24     V27    10.0   .     S
V24     V22    10.0   1_556     S
V24     V54    10.001   .     S
V25     V21    10.0   1_554     S
V25     V26    10.0   .     S
V25     V27    10.0   1_554     S
V25     V34    10.001   .     S
V26     V27    10.0   .     S
V26     V35    10.001   .     S
V27     V25    10.0   1_556     S
V27     V36    10.001   .     S
V28     V31    10.0   .     S
V28     V35    10.0   .     S
V28     V30    10.0   1_554     S
V28     V29    10.0   .     S
V28     V43    10.001   .     S
V29     V32    10.0   .     S
V29     V36    10.0   .     S
V29     V30    10.0   .     S
V29     V44    10.001   .     S
V30     V33    10.0   .     S
V30     V34    10.0   1_556     S
V30     V28    10.0   1_556     S
V30     V45    10.001   .     S
V31     V34    10.0   .     S
V31     V32    10.0   .     S
V31     V33    10.0   1_554     S
V32     V35    10.0   .     S
V32     V33    10.0   .     S
V33     V36    10.0   .     S
V33     V31    10.0   1_556     S
V34     V30    10.0   1_554     S
V34     V35    10.0   .     S
V34     V36    10.0   1_554     S
V35     V36    10.0   .     S
V36     V34    10.0   1_556     S
V37     V43    10.0   1_455     S
V37     V40    10.0   1_455     S
V37     V38    10.0   .     S
V37     V39    10.0   1_554     S
V38     V44    10.0   1_455     S
V38     V41    10.0   1_455     S
V38     V39    10.0   .     S
V39     V45    10.0   1_455     S
V39     V42    10.0   1_455     S
V39     V37    10.0   1_556     S
V40     V37    10.0   1_655     S
V40     V45    10.0   1_554     S
V40     V41    10.0   .     S
V40     V42    10.0   1_554     S
V40     V49    10.001   .     S
V41     V38    10.0   1_655     S
V41     V43    10.0   .     S
V41     V42    10.0   .     S
V41     V50    10.001   .     S
V42     V39    10.0   1_655     S
V42     V44    10.0   .     S
V42     V40    10.0   1_556     S
V42     V51    10.001   .     S
V43     V37    10.0   1_655     S
V43     V45    10.0   1_554     S
V43     V44    10.0   .     S
V44     V38    10.0   1_655     S
V44     V45    10.0   .     S
V45     V39    10.0   1_655     S
V45     V40    10.0   1_556     S
V45     V43    10.0   1_556     S
V46     V52    10.0   1_655     S
V46     V50    10.0   .     S
V46     V48    10.0   1_554     S
V46     V47    10.0   .     S
V47     V53    10.0   1_655     S
V47     V51    10.0   .     S
V47     V48    10.0   .     S
V48     V54    10.0   1_655     S
V48     V49    10.0   1_556     S
V48     V46    10.0   1_556     S
V49     V52    10.0   1_655     S
V49     V48    10.0   1_554     S
V49     V50    10.0   .     S
V49     V51    10.0   1_554     S
V50     V53    10.0   1_655     S
V50     V51    10.0   .     S
V51     V54    10.0   1_655     S
V51     V49    10.0   1_556     S
V52     V46    10.0   1_455     S
V52     V49    10.0   1_455     S
V52     V53    10.0   .     S
V52     V54    10.0   1_554     S
V53     V47    10.0   1_455     S
V53     V50    10.0   1_455     S
V53     V54    10.0   .     S
V54     V48    10.0   1_455     S
V54     V51    10.0   1_455     S
V54     V52    10.0   1_556     S
