data_fnh
_audit_creation_date              2019-12-31
_audit_creation_method            'Pymatgen'
_symmetry_space_group_name_H-M    'P1'
_symmetry_Int_Tables_number       1
loop_
_symmetry_equiv_pos_as_xyz
  x,y,z
_cell_length_a                    42.8082
_cell_length_b                    42.8082
_cell_length_c                    26.5412
_cell_angle_alpha                 90.0
_cell_angle_beta                 90.0
_cell_angle_gamma                 120.0
loop_
_atom_site_label
_atom_site_type_symbol
_atom_site_fract_x
_atom_site_fract_y
_atom_site_fract_z
V1     V     0.4342   0.8685   0.4583
V2     V     0.4342   0.8685   0.9583
V3     V     0.4342   0.5658   0.4583
V4     V     0.4342   0.5658   0.9583
V5     V     0.2324   0.4649   0.2083
V6     V     0.2324   0.4649   0.7083
V7     V     0.1315   0.5658   0.4583
V8     V     0.1315   0.5658   0.9583
V9     V     0.2324   0.7676   0.2083
V10     V     0.2324   0.7676   0.7083
V11     V     0.5351   0.7676   0.2083
V12     V     0.5351   0.7676   0.7083
V13     V     0.8991   0.7982   0.375
V14     V     0.8991   0.7982   0.875
V15     V     0.1009   0.8991   0.125
V16     V     0.1009   0.8991   0.625
V17     V     0.7982   0.8991   0.125
V18     V     0.7982   0.8991   0.625
V19     V     0.8991   0.1009   0.375
V20     V     0.8991   0.1009   0.875
V21     V     0.2018   0.1009   0.375
V22     V     0.2018   0.1009   0.875
V23     V     0.1009   0.2018   0.125
V24     V     0.1009   0.2018   0.625
V25     V     0.7676   0.5351   0.2917
V26     V     0.7676   0.5351   0.7917
V27     V     0.7676   0.2324   0.2917
V28     V     0.7676   0.2324   0.7917
V29     V     0.5658   0.1315   0.0417
V30     V     0.5658   0.1315   0.5417
V31     V     0.4649   0.2324   0.2917
V32     V     0.4649   0.2324   0.7917
V33     V     0.5658   0.4342   0.0417
V34     V     0.5658   0.4342   0.5417
V35     V     0.8685   0.4342   0.0417
V36     V     0.8685   0.4342   0.5417
loop_
_geom_bond_atom_site_label_1
_geom_bond_atom_site_label_2
_geom_bond_distance
_geom_bond_site_symmetry_2
_ccdc_geom_bond_type
V1     V30    10.0   1_565     S
V1     V11    10.0   .     S
V1     V9    10.0   .     S
V1     V12    10.0   .     S
V1     V10    10.0   .     S
V2     V29    10.0   1_566     S
V2     V12    10.0   .     S
V2     V10    10.0   .     S
V2     V11    10.0   1_556     S
V2     V9    10.0   1_556     S
V3     V34    10.0   .     S
V3     V11    10.0   .     S
V3     V12    10.0   .     S
V3     V5    10.0   .     S
V3     V6    10.0   .     S
V4     V33    10.0   1_556     S
V4     V12    10.0   .     S
V4     V11    10.0   1_556     S
V4     V6    10.0   .     S
V4     V5    10.0   1_556     S
V5     V23    10.0   .     S
V5     V7    10.0   .     S
V5     V4    10.0   1_554     S
V5     V8    10.0   1_554     S
V6     V24    10.0   .     S
V6     V8    10.0   .     S
V6     V7    10.0   .     S
V7     V36    10.0   1_455     S
V7     V9    10.0   .     S
V7     V10    10.0   .     S
V8     V35    10.0   1_456     S
V8     V10    10.0   .     S
V8     V9    10.0   1_556     S
V8     V5    10.0   1_556     S
V9     V15    10.0   .     S
V9     V8    10.0   1_554     S
V9     V2    10.0   1_554     S
V10     V16    10.0   .     S
V11     V4    10.0   1_554     S
V11     V2    10.0   1_554     S
V11     V17    10.0   .     S
V12     V18    10.0   .     S
V13     V25    10.0   .     S
V13     V15    10.0   1_655     S
V13     V16    10.0   1_655     S
V13     V18    10.0   .     S
V13     V17    10.0   .     S
V14     V26    10.0   .     S
V14     V16    10.0   1_655     S
V14     V15    10.0   1_656     S
V14     V17    10.0   1_556     S
V14     V18    10.0   .     S
V15     V13    10.0   1_455     S
V15     V14    10.0   1_454     S
V15     V21    10.0   1_565     S
V15     V22    10.0   1_564     S
V16     V14    10.0   1_455     S
V16     V13    10.0   1_455     S
V16     V22    10.0   1_565     S
V16     V21    10.0   1_565     S
V17     V14    10.0   1_554     S
V17     V19    10.0   1_565     S
V17     V20    10.0   1_564     S
V18     V20    10.0   1_565     S
V18     V19    10.0   1_565     S
V19     V23    10.0   1_655     S
V19     V24    10.0   1_655     S
V19     V17    10.0   1_545     S
V19     V18    10.0   1_545     S
V19     V27    10.0   .     S
V20     V24    10.0   1_655     S
V20     V23    10.0   1_656     S
V20     V18    10.0   1_545     S
V20     V17    10.0   1_546     S
V20     V28    10.0   .     S
V21     V31    10.0   .     S
V21     V23    10.0   .     S
V21     V15    10.0   1_545     S
V21     V24    10.0   .     S
V21     V16    10.0   1_545     S
V22     V32    10.0   .     S
V22     V24    10.0   .     S
V22     V16    10.0   1_545     S
V22     V23    10.0   1_556     S
V22     V15    10.0   1_546     S
V23     V19    10.0   1_455     S
V23     V20    10.0   1_454     S
V23     V22    10.0   1_554     S
V24     V20    10.0   1_455     S
V24     V19    10.0   1_455     S
V25     V36    10.0   .     S
V25     V35    10.0   .     S
V25     V33    10.0   .     S
V25     V34    10.0   .     S
V26     V35    10.0   1_556     S
V26     V36    10.0   .     S
V26     V34    10.0   .     S
V26     V33    10.0   1_556     S
V27     V36    10.0   .     S
V27     V29    10.0   .     S
V27     V30    10.0   .     S
V27     V35    10.0   .     S
V28     V35    10.0   1_556     S
V28     V30    10.0   .     S
V28     V29    10.0   1_556     S
V28     V36    10.0   .     S
V29     V2    10.0   1_544     S
V29     V32    10.0   1_554     S
V29     V31    10.0   .     S
V29     V28    10.0   1_554     S
V30     V1    10.0   1_545     S
V30     V31    10.0   .     S
V30     V32    10.0   .     S
V31     V34    10.0   .     S
V31     V33    10.0   .     S
V32     V29    10.0   1_556     S
V32     V33    10.0   1_556     S
V32     V34    10.0   .     S
V33     V4    10.0   1_554     S
V33     V32    10.0   1_554     S
V33     V26    10.0   1_554     S
V35     V8    10.0   1_654     S
V35     V26    10.0   1_554     S
V35     V28    10.0   1_554     S
V36     V7    10.0   1_655     S
