data_fnl
_audit_creation_date              2019-12-31
_audit_creation_method            'Pymatgen'
_symmetry_space_group_name_H-M    'P1'
_symmetry_Int_Tables_number       1
loop_
_symmetry_equiv_pos_as_xyz
  x,y,z
_cell_length_a                    39.9998
_cell_length_b                    39.9998
_cell_length_c                    68.2847
_cell_angle_alpha                 90.0
_cell_angle_beta                 90.0
_cell_angle_gamma                 90.0
loop_
_atom_site_label
_atom_site_type_symbol
_atom_site_fract_x
_atom_site_fract_y
_atom_site_fract_z
V1     V     0.25   0.0   0.4268
V2     V     0.25   0.5   0.4268
V3     V     0.75   0.0   0.4268
V4     V     0.75   0.5   0.4268
V5     V     0.25   0.0   0.5732
V6     V     0.25   0.5   0.5732
V7     V     0.75   0.0   0.5732
V8     V     0.75   0.5   0.5732
V9     V     0.25   0.25   0.5732
V10     V     0.25   0.75   0.5732
V11     V     0.75   0.25   0.5732
V12     V     0.75   0.75   0.5732
V13     V     0.25   0.25   0.4268
V14     V     0.25   0.75   0.4268
V15     V     0.75   0.25   0.4268
V16     V     0.75   0.75   0.4268
V17     V     0.125   0.125   0.8232
V18     V     0.125   0.625   0.8232
V19     V     0.625   0.125   0.8232
V20     V     0.625   0.625   0.8232
V21     V     0.125   0.125   0.6768
V22     V     0.125   0.625   0.6768
V23     V     0.625   0.125   0.6768
V24     V     0.625   0.625   0.6768
V25     V     0.375   0.125   0.8232
V26     V     0.375   0.625   0.8232
V27     V     0.875   0.125   0.8232
V28     V     0.875   0.625   0.8232
V29     V     0.375   0.125   0.6768
V30     V     0.375   0.625   0.6768
V31     V     0.875   0.125   0.6768
V32     V     0.875   0.625   0.6768
V33     V     0.125   0.375   0.3232
V34     V     0.125   0.875   0.3232
V35     V     0.625   0.375   0.3232
V36     V     0.625   0.875   0.3232
V37     V     0.125   0.375   0.1768
V38     V     0.125   0.875   0.1768
V39     V     0.625   0.375   0.1768
V40     V     0.625   0.875   0.1768
V41     V     0.375   0.375   0.3232
V42     V     0.375   0.875   0.3232
V43     V     0.875   0.375   0.3232
V44     V     0.875   0.875   0.3232
V45     V     0.375   0.375   0.1768
V46     V     0.375   0.875   0.1768
V47     V     0.875   0.375   0.1768
V48     V     0.875   0.875   0.1768
V49     V     0.0   0.25   0.9268
V50     V     0.0   0.75   0.9268
V51     V     0.5   0.25   0.9268
V52     V     0.5   0.75   0.9268
V53     V     0.0   0.25   0.0732
V54     V     0.0   0.75   0.0732
V55     V     0.5   0.25   0.0732
V56     V     0.5   0.75   0.0732
V57     V     0.0   0.0   0.9268
V58     V     0.0   0.5   0.9268
V59     V     0.5   0.0   0.9268
V60     V     0.5   0.5   0.9268
V61     V     0.0   0.0   0.0732
V62     V     0.0   0.5   0.0732
V63     V     0.5   0.0   0.0732
V64     V     0.5   0.5   0.0732
loop_
_geom_bond_atom_site_label_1
_geom_bond_atom_site_label_2
_geom_bond_distance
_geom_bond_site_symmetry_2
_ccdc_geom_bond_type
V1     V34    10.0   1_545     S
V1     V42    10.0   1_545     S
V1     V5    10.0   .     S
V1     V14    10.0   1_545     S
V1     V13    10.0   .     S
V2     V33    10.0   .     S
V2     V41    10.0   .     S
V2     V6    10.0   .     S
V2     V13    10.0   .     S
V2     V14    10.0   .     S
V3     V36    10.0   1_545     S
V3     V44    10.0   1_545     S
V3     V7    10.0   .     S
V3     V16    10.0   1_545     S
V3     V15    10.0   .     S
V4     V35    10.0   .     S
V4     V43    10.0   .     S
V4     V8    10.0   .     S
V4     V15    10.0   .     S
V4     V16    10.0   .     S
V5     V10    10.0   1_545     S
V5     V9    10.0   .     S
V5     V21    10.0   .     S
V5     V29    10.0   .     S
V6     V9    10.0   .     S
V6     V10    10.0   .     S
V6     V22    10.0   .     S
V6     V30    10.0   .     S
V7     V12    10.0   1_545     S
V7     V11    10.0   .     S
V7     V23    10.0   .     S
V7     V31    10.0   .     S
V8     V11    10.0   .     S
V8     V12    10.0   .     S
V8     V24    10.0   .     S
V8     V32    10.0   .     S
V9     V13    10.0   .     S
V9     V29    10.0   .     S
V9     V21    10.0   .     S
V10     V5    10.0   1_565     S
V10     V14    10.0   .     S
V10     V30    10.0   .     S
V10     V22    10.0   .     S
V11     V15    10.0   .     S
V11     V31    10.0   .     S
V11     V23    10.0   .     S
V12     V7    10.0   1_565     S
V12     V16    10.0   .     S
V12     V32    10.0   .     S
V12     V24    10.0   .     S
V13     V41    10.0   .     S
V13     V33    10.0   .     S
V14     V42    10.0   .     S
V14     V34    10.0   .     S
V14     V1    10.0   1_565     S
V15     V43    10.0   .     S
V15     V35    10.0   .     S
V16     V44    10.0   .     S
V16     V36    10.0   .     S
V16     V3    10.0   1_565     S
V17     V21    10.0   .     S
V17     V27    10.0   1_455     S
V17     V25    10.0   .     S
V17     V49    10.0   .     S
V17     V57    10.0   .     S
V18     V22    10.0   .     S
V18     V28    10.0   1_455     S
V18     V26    10.0   .     S
V18     V50    10.0   .     S
V18     V58    10.0   .     S
V19     V23    10.0   .     S
V19     V25    10.0   .     S
V19     V27    10.0   .     S
V19     V51    10.0   .     S
V19     V59    10.0   .     S
V20     V24    10.0   .     S
V20     V26    10.0   .     S
V20     V28    10.0   .     S
V20     V52    10.0   .     S
V20     V60    10.0   .     S
V21     V31    10.0   1_455     S
V21     V29    10.0   .     S
V22     V32    10.0   1_455     S
V22     V30    10.0   .     S
V23     V29    10.0   .     S
V23     V31    10.0   .     S
V24     V30    10.0   .     S
V24     V32    10.0   .     S
V25     V29    10.0   .     S
V25     V51    10.0   .     S
V25     V59    10.0   .     S
V26     V30    10.0   .     S
V26     V52    10.0   .     S
V26     V60    10.0   .     S
V27     V31    10.0   .     S
V27     V17    10.0   1_655     S
V27     V49    10.0   1_655     S
V27     V57    10.0   1_655     S
V28     V32    10.0   .     S
V28     V18    10.0   1_655     S
V28     V50    10.0   1_655     S
V28     V58    10.0   1_655     S
V31     V21    10.0   1_655     S
V32     V22    10.0   1_655     S
V33     V37    10.0   .     S
V33     V43    10.0   1_455     S
V33     V41    10.0   .     S
V34     V1    10.0   1_565     S
V34     V38    10.0   .     S
V34     V44    10.0   1_455     S
V34     V42    10.0   .     S
V35     V39    10.0   .     S
V35     V41    10.0   .     S
V35     V43    10.0   .     S
V36     V3    10.0   1_565     S
V36     V40    10.0   .     S
V36     V42    10.0   .     S
V36     V44    10.0   .     S
V37     V47    10.0   1_455     S
V37     V45    10.0   .     S
V37     V53    10.0   .     S
V37     V62    10.0   .     S
V38     V48    10.0   1_455     S
V38     V46    10.0   .     S
V38     V54    10.0   .     S
V38     V61    10.0   1_565     S
V39     V45    10.0   .     S
V39     V47    10.0   .     S
V39     V55    10.0   .     S
V39     V64    10.0   .     S
V40     V46    10.0   .     S
V40     V48    10.0   .     S
V40     V56    10.0   .     S
V40     V63    10.0   1_565     S
V41     V45    10.0   .     S
V42     V1    10.0   1_565     S
V42     V46    10.0   .     S
V43     V47    10.0   .     S
V43     V33    10.0   1_655     S
V44     V3    10.0   1_565     S
V44     V48    10.0   .     S
V44     V34    10.0   1_655     S
V45     V55    10.0   .     S
V45     V64    10.0   .     S
V46     V56    10.0   .     S
V46     V63    10.0   1_565     S
V47     V37    10.0   1_655     S
V47     V53    10.0   1_655     S
V47     V62    10.0   1_655     S
V48     V38    10.0   1_655     S
V48     V54    10.0   1_655     S
V48     V61    10.0   1_665     S
V49     V27    10.0   1_455     S
V49     V53    10.0   1_556     S
V49     V58    10.0   .     S
V49     V57    10.0   .     S
V50     V28    10.0   1_455     S
V50     V54    10.0   1_556     S
V50     V57    10.0   1_565     S
V50     V58    10.0   .     S
V51     V55    10.0   1_556     S
V51     V60    10.0   .     S
V51     V59    10.0   .     S
V52     V56    10.0   1_556     S
V52     V59    10.0   1_565     S
V52     V60    10.0   .     S
V53     V49    10.0   1_554     S
V53     V62    10.0   .     S
V53     V61    10.0   .     S
V53     V47    10.0   1_455     S
V54     V50    10.0   1_554     S
V54     V61    10.0   1_565     S
V54     V62    10.0   .     S
V54     V48    10.0   1_455     S
V55     V51    10.0   1_554     S
V55     V64    10.0   .     S
V55     V63    10.0   .     S
V56     V52    10.0   1_554     S
V56     V63    10.0   1_565     S
V56     V64    10.0   .     S
V57     V27    10.0   1_455     S
V57     V61    10.0   1_556     S
V57     V50    10.0   1_545     S
V58     V28    10.0   1_455     S
V58     V62    10.0   1_556     S
V59     V63    10.0   1_556     S
V59     V52    10.0   1_545     S
V60     V64    10.0   1_556     S
V61     V57    10.0   1_554     S
V61     V54    10.0   1_545     S
V61     V38    10.0   1_545     S
V61     V48    10.0   1_445     S
V62     V58    10.0   1_554     S
V62     V47    10.0   1_455     S
V63     V59    10.0   1_554     S
V63     V56    10.0   1_545     S
V63     V40    10.0   1_545     S
V63     V46    10.0   1_545     S
V64     V60    10.0   1_554     S
