data_fnu
_audit_creation_date              2019-12-31
_audit_creation_method            'Pymatgen'
_symmetry_space_group_name_H-M    'P1'
_symmetry_Int_Tables_number       1
loop_
_symmetry_equiv_pos_as_xyz
  x,y,z
_cell_length_a                    32.66
_cell_length_b                    32.66
_cell_length_c                    39.9998
_cell_angle_alpha                 90.0
_cell_angle_beta                 90.0
_cell_angle_gamma                 120.0
loop_
_atom_site_label
_atom_site_type_symbol
_atom_site_fract_x
_atom_site_fract_y
_atom_site_fract_z
V1     V     0.1667   0.3333   0.2083
V2     V     0.1667   0.3333   0.7083
V3     V     0.1667   0.8333   0.2083
V4     V     0.1667   0.8333   0.7083
V5     V     0.6667   0.3333   0.2083
V6     V     0.6667   0.3333   0.7083
V7     V     0.6667   0.8333   0.2083
V8     V     0.6667   0.8333   0.7083
V9     V     0.3333   0.1667   0.2917
V10     V     0.3333   0.1667   0.7917
V11     V     0.3333   0.6667   0.2917
V12     V     0.3333   0.6667   0.7917
V13     V     0.8333   0.1667   0.2917
V14     V     0.8333   0.1667   0.7917
V15     V     0.8333   0.6667   0.2917
V16     V     0.8333   0.6667   0.7917
V17     V     0.0   0.0   0.375
V18     V     0.0   0.0   0.875
V19     V     0.0   0.5   0.375
V20     V     0.0   0.5   0.875
V21     V     0.5   0.0   0.375
V22     V     0.5   0.0   0.875
V23     V     0.5   0.5   0.375
V24     V     0.5   0.5   0.875
V25     V     0.1667   0.3333   0.4583
V26     V     0.1667   0.3333   0.9583
V27     V     0.1667   0.8333   0.4583
V28     V     0.1667   0.8333   0.9583
V29     V     0.6667   0.3333   0.4583
V30     V     0.6667   0.3333   0.9583
V31     V     0.6667   0.8333   0.4583
V32     V     0.6667   0.8333   0.9583
V33     V     0.3333   0.1667   0.0417
V34     V     0.3333   0.1667   0.5417
V35     V     0.3333   0.6667   0.0417
V36     V     0.3333   0.6667   0.5417
V37     V     0.8333   0.1667   0.0417
V38     V     0.8333   0.1667   0.5417
V39     V     0.8333   0.6667   0.0417
V40     V     0.8333   0.6667   0.5417
V41     V     0.0   0.0   0.125
V42     V     0.0   0.0   0.625
V43     V     0.0   0.5   0.125
V44     V     0.0   0.5   0.625
V45     V     0.5   0.0   0.125
V46     V     0.5   0.0   0.625
V47     V     0.5   0.5   0.125
V48     V     0.5   0.5   0.625
loop_
_geom_bond_atom_site_label_1
_geom_bond_atom_site_label_2
_geom_bond_distance
_geom_bond_site_symmetry_2
_ccdc_geom_bond_type
V1     V13    10.0   1_455     S
V1     V11    10.0   .     S
V1     V9    10.0   .     S
V1     V25    10.0   .     S
V1     V26    10.0   1_554     S
V2     V14    10.0   1_455     S
V2     V12    10.0   .     S
V2     V10    10.0   .     S
V2     V26    10.0   .     S
V2     V25    10.0   .     S
V3     V15    10.0   1_455     S
V3     V9    10.0   1_565     S
V3     V11    10.0   .     S
V3     V27    10.0   .     S
V3     V28    10.0   1_554     S
V4     V16    10.0   1_455     S
V4     V10    10.0   1_565     S
V4     V12    10.0   .     S
V4     V28    10.0   .     S
V4     V27    10.0   .     S
V5     V9    10.0   .     S
V5     V15    10.0   .     S
V5     V13    10.0   .     S
V5     V29    10.0   .     S
V5     V30    10.0   1_554     S
V6     V10    10.0   .     S
V6     V16    10.0   .     S
V6     V14    10.0   .     S
V6     V30    10.0   .     S
V6     V29    10.0   .     S
V7     V11    10.0   .     S
V7     V13    10.0   1_565     S
V7     V15    10.0   .     S
V7     V31    10.0   .     S
V7     V32    10.0   1_554     S
V8     V12    10.0   .     S
V8     V14    10.0   1_565     S
V8     V16    10.0   .     S
V8     V32    10.0   .     S
V8     V31    10.0   .     S
V9     V3    10.0   1_545     S
V9     V34    10.0   .     S
V9     V33    10.0   .     S
V10     V4    10.0   1_545     S
V10     V33    10.0   1_556     S
V10     V34    10.0   .     S
V11     V36    10.0   .     S
V11     V35    10.0   .     S
V12     V35    10.0   1_556     S
V12     V36    10.0   .     S
V13     V1    10.0   1_655     S
V13     V7    10.0   1_545     S
V13     V38    10.0   .     S
V13     V37    10.0   .     S
V14     V2    10.0   1_655     S
V14     V8    10.0   1_545     S
V14     V37    10.0   1_556     S
V14     V38    10.0   .     S
V15     V3    10.0   1_655     S
V15     V40    10.0   .     S
V15     V39    10.0   .     S
V16     V4    10.0   1_655     S
V16     V39    10.0   1_556     S
V16     V40    10.0   .     S
V17     V31    10.0   1_445     S
V17     V25    10.0   .     S
V17     V27    10.0   1_545     S
V17     V42    10.0   .     S
V17     V41    10.0   .     S
V18     V32    10.0   1_445     S
V18     V26    10.0   .     S
V18     V28    10.0   1_545     S
V18     V41    10.0   1_556     S
V18     V42    10.0   .     S
V19     V29    10.0   1_455     S
V19     V27    10.0   .     S
V19     V25    10.0   .     S
V19     V44    10.0   .     S
V19     V43    10.0   .     S
V20     V30    10.0   1_455     S
V20     V28    10.0   .     S
V20     V26    10.0   .     S
V20     V43    10.0   1_556     S
V20     V44    10.0   .     S
V21     V27    10.0   1_545     S
V21     V29    10.0   .     S
V21     V31    10.0   1_545     S
V21     V46    10.0   .     S
V21     V45    10.0   .     S
V22     V28    10.0   1_545     S
V22     V30    10.0   .     S
V22     V32    10.0   1_545     S
V22     V45    10.0   1_556     S
V22     V46    10.0   .     S
V23     V25    10.0   .     S
V23     V31    10.0   .     S
V23     V29    10.0   .     S
V23     V48    10.0   .     S
V23     V47    10.0   .     S
V24     V26    10.0   .     S
V24     V32    10.0   .     S
V24     V30    10.0   .     S
V24     V47    10.0   1_556     S
V24     V48    10.0   .     S
V26     V1    10.0   1_556     S
V27     V21    10.0   1_565     S
V27     V17    10.0   1_565     S
V28     V22    10.0   1_565     S
V28     V18    10.0   1_565     S
V28     V3    10.0   1_556     S
V29     V19    10.0   1_655     S
V30     V20    10.0   1_655     S
V30     V5    10.0   1_556     S
V31     V17    10.0   1_665     S
V31     V21    10.0   1_565     S
V32     V18    10.0   1_665     S
V32     V22    10.0   1_565     S
V32     V7    10.0   1_556     S
V33     V47    10.0   .     S
V33     V41    10.0   .     S
V33     V45    10.0   .     S
V33     V10    10.0   1_554     S
V34     V48    10.0   .     S
V34     V42    10.0   .     S
V34     V46    10.0   .     S
V35     V45    10.0   1_565     S
V35     V43    10.0   .     S
V35     V47    10.0   .     S
V35     V12    10.0   1_554     S
V36     V46    10.0   1_565     S
V36     V44    10.0   .     S
V36     V48    10.0   .     S
V37     V43    10.0   1_655     S
V37     V45    10.0   .     S
V37     V41    10.0   1_655     S
V37     V14    10.0   1_554     S
V38     V44    10.0   1_655     S
V38     V46    10.0   .     S
V38     V42    10.0   1_655     S
V39     V41    10.0   1_665     S
V39     V47    10.0   .     S
V39     V43    10.0   1_655     S
V39     V16    10.0   1_554     S
V40     V42    10.0   1_665     S
V40     V48    10.0   .     S
V40     V44    10.0   1_655     S
V41     V18    10.0   1_554     S
V41     V39    10.0   1_445     S
V41     V37    10.0   1_455     S
V42     V40    10.0   1_445     S
V42     V38    10.0   1_455     S
V43     V20    10.0   1_554     S
V43     V37    10.0   1_455     S
V43     V39    10.0   1_455     S
V44     V38    10.0   1_455     S
V44     V40    10.0   1_455     S
V45     V22    10.0   1_554     S
V45     V35    10.0   1_545     S
V46     V36    10.0   1_545     S
V47     V24    10.0   1_554     S
