data_fnx
_audit_creation_date              2019-12-31
_audit_creation_method            'Pymatgen'
_symmetry_space_group_name_H-M    'P1'
_symmetry_Int_Tables_number       1
loop_
_symmetry_equiv_pos_as_xyz
  x,y,z
_cell_length_a                    31.9866
_cell_length_b                    31.9866
_cell_length_c                    22.7007
_cell_angle_alpha                 90.0
_cell_angle_beta                 90.0
_cell_angle_gamma                 90.0
loop_
_atom_site_label
_atom_site_type_symbol
_atom_site_fract_x
_atom_site_fract_y
_atom_site_fract_z
V1     V     0.0943   0.3443   0.7299
V2     V     0.0943   0.8443   0.7299
V3     V     0.5943   0.3443   0.7299
V4     V     0.5943   0.8443   0.7299
V5     V     0.1557   0.4057   0.5201
V6     V     0.1557   0.9057   0.5201
V7     V     0.6557   0.4057   0.5201
V8     V     0.6557   0.9057   0.5201
V9     V     0.3443   0.4057   0.4799
V10     V     0.3443   0.9057   0.4799
V11     V     0.8443   0.4057   0.4799
V12     V     0.8443   0.9057   0.4799
V13     V     0.4057   0.3443   0.2701
V14     V     0.4057   0.8443   0.2701
V15     V     0.9057   0.3443   0.2701
V16     V     0.9057   0.8443   0.2701
V17     V     0.1557   0.0943   0.9799
V18     V     0.1557   0.5943   0.9799
V19     V     0.6557   0.0943   0.9799
V20     V     0.6557   0.5943   0.9799
V21     V     0.0943   0.1557   0.7701
V22     V     0.0943   0.6557   0.7701
V23     V     0.5943   0.1557   0.7701
V24     V     0.5943   0.6557   0.7701
V25     V     0.3443   0.0943   0.0201
V26     V     0.3443   0.5943   0.0201
V27     V     0.8443   0.0943   0.0201
V28     V     0.8443   0.5943   0.0201
V29     V     0.4057   0.1557   0.2299
V30     V     0.4057   0.6557   0.2299
V31     V     0.9057   0.1557   0.2299
V32     V     0.9057   0.6557   0.2299
loop_
_geom_bond_atom_site_label_1
_geom_bond_atom_site_label_2
_geom_bond_distance
_geom_bond_site_symmetry_2
_ccdc_geom_bond_type
V1     V9    10.0   .     S
V1     V22    10.0   .     S
V1     V18    10.0   .     S
V1     V11    10.0   1_455     S
V1     V17    10.0   .     S
V2     V10    10.0   .     S
V2     V21    10.0   1_565     S
V2     V17    10.0   1_565     S
V2     V12    10.0   1_455     S
V2     V18    10.0   .     S
V3     V11    10.0   .     S
V3     V24    10.0   .     S
V3     V20    10.0   .     S
V3     V9    10.0   .     S
V3     V19    10.0   .     S
V4     V12    10.0   .     S
V4     V23    10.0   1_565     S
V4     V19    10.0   1_565     S
V4     V10    10.0   .     S
V4     V20    10.0   .     S
V5     V21    10.0   .     S
V5     V22    10.0   .     S
V5     V11    10.0   1_455     S
V5     V15    10.0   1_455     S
V5     V13    10.0   .     S
V6     V22    10.0   .     S
V6     V21    10.0   1_565     S
V6     V12    10.0   1_455     S
V6     V16    10.0   1_455     S
V6     V14    10.0   .     S
V7     V23    10.0   .     S
V7     V24    10.0   .     S
V7     V9    10.0   .     S
V7     V13    10.0   .     S
V7     V15    10.0   .     S
V8     V24    10.0   .     S
V8     V23    10.0   1_565     S
V8     V10    10.0   .     S
V8     V14    10.0   .     S
V8     V16    10.0   .     S
V9     V29    10.0   .     S
V9     V30    10.0   .     S
V10     V30    10.0   .     S
V10     V29    10.0   1_565     S
V11     V5    10.0   1_655     S
V11     V1    10.0   1_655     S
V11     V31    10.0   .     S
V11     V32    10.0   .     S
V12     V6    10.0   1_655     S
V12     V2    10.0   1_655     S
V12     V32    10.0   .     S
V12     V31    10.0   1_565     S
V13     V30    10.0   .     S
V13     V26    10.0   .     S
V13     V25    10.0   .     S
V14     V29    10.0   1_565     S
V14     V25    10.0   1_565     S
V14     V26    10.0   .     S
V15     V5    10.0   1_655     S
V15     V32    10.0   .     S
V15     V28    10.0   .     S
V15     V27    10.0   .     S
V16     V6    10.0   1_655     S
V16     V31    10.0   1_565     S
V16     V27    10.0   1_565     S
V16     V28    10.0   .     S
V17     V2    10.0   1_545     S
V17     V27    10.0   1_456     S
V17     V31    10.0   1_456     S
V17     V29    10.0   1_556     S
V18     V28    10.0   1_456     S
V18     V32    10.0   1_456     S
V18     V30    10.0   1_556     S
V19     V4    10.0   1_545     S
V19     V25    10.0   1_556     S
V19     V29    10.0   1_556     S
V19     V31    10.0   1_556     S
V20     V26    10.0   1_556     S
V20     V30    10.0   1_556     S
V20     V32    10.0   1_556     S
V21     V2    10.0   1_545     S
V21     V6    10.0   1_545     S
V21     V25    10.0   1_556     S
V21     V27    10.0   1_456     S
V22     V26    10.0   1_556     S
V22     V28    10.0   1_456     S
V23     V4    10.0   1_545     S
V23     V8    10.0   1_545     S
V23     V27    10.0   1_556     S
V23     V25    10.0   1_556     S
V24     V28    10.0   1_556     S
V24     V26    10.0   1_556     S
V25     V14    10.0   1_545     S
V25     V21    10.0   1_554     S
V25     V19    10.0   1_554     S
V25     V23    10.0   1_554     S
V26     V22    10.0   1_554     S
V26     V20    10.0   1_554     S
V26     V24    10.0   1_554     S
V27     V16    10.0   1_545     S
V27     V23    10.0   1_554     S
V27     V17    10.0   1_654     S
V27     V21    10.0   1_654     S
V28     V24    10.0   1_554     S
V28     V18    10.0   1_654     S
V28     V22    10.0   1_654     S
V29     V14    10.0   1_545     S
V29     V10    10.0   1_545     S
V29     V19    10.0   1_554     S
V29     V17    10.0   1_554     S
V30     V20    10.0   1_554     S
V30     V18    10.0   1_554     S
V31     V16    10.0   1_545     S
V31     V12    10.0   1_545     S
V31     V17    10.0   1_654     S
V31     V19    10.0   1_554     S
V32     V18    10.0   1_654     S
V32     V20    10.0   1_554     S
