data_fny
_audit_creation_date              2019-12-31
_audit_creation_method            'Pymatgen'
_symmetry_space_group_name_H-M    'P1'
_symmetry_Int_Tables_number       1
loop_
_symmetry_equiv_pos_as_xyz
  x,y,z
_cell_length_a                    39.0234
_cell_length_b                    39.0234
_cell_length_c                    27.6158
_cell_angle_alpha                 90.0
_cell_angle_beta                 90.0
_cell_angle_gamma                 120.0
loop_
_atom_site_label
_atom_site_type_symbol
_atom_site_fract_x
_atom_site_fract_y
_atom_site_fract_z
V1     V     0.3333   0.852   0.375
V2     V     0.3333   0.852   0.875
V3     V     0.148   0.6667   0.125
V4     V     0.148   0.6667   0.625
V5     V     0.5187   0.852   0.125
V6     V     0.5187   0.852   0.625
V7     V     0.5187   0.6667   0.375
V8     V     0.5187   0.6667   0.875
V9     V     0.852   0.5187   0.125
V10     V     0.852   0.5187   0.625
V11     V     0.6667   0.5187   0.375
V12     V     0.6667   0.5187   0.875
V13     V     0.148   0.4813   0.375
V14     V     0.148   0.4813   0.875
V15     V     0.3333   0.4813   0.125
V16     V     0.3333   0.4813   0.625
V17     V     0.4813   0.3333   0.125
V18     V     0.4813   0.3333   0.625
V19     V     0.4813   0.148   0.375
V20     V     0.4813   0.148   0.875
V21     V     0.852   0.3333   0.375
V22     V     0.852   0.3333   0.875
V23     V     0.6667   0.148   0.125
V24     V     0.6667   0.148   0.625
loop_
_geom_bond_atom_site_label_1
_geom_bond_atom_site_label_2
_geom_bond_distance
_geom_bond_site_symmetry_2
_ccdc_geom_bond_type
V1     V3    10.0   .     S
V1     V4    10.0   .     S
V1     V19    10.0   1_565     S
V1     V5    10.0   .     S
V1     V6    10.0   .     S
V2     V4    10.0   .     S
V2     V3    10.0   1_556     S
V2     V20    10.0   1_565     S
V2     V6    10.0   .     S
V2     V5    10.0   1_556     S
V3     V2    10.0   1_554     S
V3     V9    10.0   1_455     S
V3     V13    10.0   .     S
V3     V14    10.0   1_554     S
V4     V10    10.0   1_455     S
V4     V14    10.0   .     S
V4     V13    10.0   .     S
V5     V8    10.0   1_554     S
V5     V7    10.0   .     S
V5     V23    10.0   1_565     S
V5     V2    10.0   1_554     S
V6     V7    10.0   .     S
V6     V8    10.0   .     S
V6     V24    10.0   1_565     S
V7     V11    10.0   .     S
V7     V16    10.0   .     S
V7     V15    10.0   .     S
V8     V5    10.0   1_556     S
V8     V12    10.0   .     S
V8     V15    10.0   1_556     S
V8     V16    10.0   .     S
V9     V11    10.0   .     S
V9     V12    10.0   1_554     S
V9     V3    10.0   1_655     S
V9     V21    10.0   .     S
V9     V22    10.0   1_554     S
V10     V12    10.0   .     S
V10     V11    10.0   .     S
V10     V4    10.0   1_655     S
V10     V22    10.0   .     S
V10     V21    10.0   .     S
V11     V17    10.0   .     S
V11     V18    10.0   .     S
V12     V9    10.0   1_556     S
V12     V18    10.0   .     S
V12     V17    10.0   1_556     S
V13     V15    10.0   .     S
V13     V16    10.0   .     S
V13     V21    10.0   1_455     S
V14     V16    10.0   .     S
V14     V15    10.0   1_556     S
V14     V22    10.0   1_455     S
V14     V3    10.0   1_556     S
V15     V14    10.0   1_554     S
V15     V17    10.0   .     S
V15     V8    10.0   1_554     S
V16     V18    10.0   .     S
V17     V19    10.0   .     S
V17     V20    10.0   1_554     S
V17     V12    10.0   1_554     S
V18     V20    10.0   .     S
V18     V19    10.0   .     S
V19     V1    10.0   1_545     S
V19     V23    10.0   .     S
V19     V24    10.0   .     S
V20     V17    10.0   1_556     S
V20     V2    10.0   1_545     S
V20     V24    10.0   .     S
V20     V23    10.0   1_556     S
V21     V13    10.0   1_655     S
V21     V23    10.0   .     S
V21     V24    10.0   .     S
V22     V14    10.0   1_655     S
V22     V24    10.0   .     S
V22     V23    10.0   1_556     S
V22     V9    10.0   1_556     S
V23     V22    10.0   1_554     S
V23     V5    10.0   1_545     S
V23     V20    10.0   1_554     S
V24     V6    10.0   1_545     S
