data_fob
_audit_creation_date              2019-12-31
_audit_creation_method            'Pymatgen'
_symmetry_space_group_name_H-M    'P1'
_symmetry_Int_Tables_number       1
loop_
_symmetry_equiv_pos_as_xyz
  x,y,z
_cell_length_a                    31.975
_cell_length_b                    35.7866
_cell_length_c                    32.0165
_cell_angle_alpha                 90.0
_cell_angle_beta                 90.0
_cell_angle_gamma                 90.0
loop_
_atom_site_label
_atom_site_type_symbol
_atom_site_fract_x
_atom_site_fract_y
_atom_site_fract_z
V1     V     0.3125   0.625   0.7812
V2     V     0.8125   0.625   0.7812
V3     V     0.0625   0.625   0.9688
V4     V     0.5625   0.625   0.9688
V5     V     0.0625   0.625   0.2812
V6     V     0.5625   0.625   0.2812
V7     V     0.3125   0.625   0.4688
V8     V     0.8125   0.625   0.4688
V9     V     0.4375   0.375   0.0312
V10     V     0.9375   0.375   0.0312
V11     V     0.1875   0.375   0.2188
V12     V     0.6875   0.375   0.2188
V13     V     0.4375   0.375   0.7188
V14     V     0.9375   0.375   0.7188
V15     V     0.1875   0.375   0.5312
V16     V     0.6875   0.375   0.5312
V17     V     0.4375   0.875   0.2188
V18     V     0.9375   0.875   0.2188
V19     V     0.1875   0.875   0.0312
V20     V     0.6875   0.875   0.0312
V21     V     0.1875   0.875   0.7188
V22     V     0.6875   0.875   0.7188
V23     V     0.4375   0.875   0.5312
V24     V     0.9375   0.875   0.5312
V25     V     0.0625   0.125   0.7812
V26     V     0.5625   0.125   0.7812
V27     V     0.3125   0.125   0.9688
V28     V     0.8125   0.125   0.9688
V29     V     0.3125   0.125   0.2812
V30     V     0.8125   0.125   0.2812
V31     V     0.0625   0.125   0.4688
V32     V     0.5625   0.125   0.4688
loop_
_geom_bond_atom_site_label_1
_geom_bond_atom_site_label_2
_geom_bond_distance
_geom_bond_site_symmetry_2
_ccdc_geom_bond_type
V1     V4    10.0   .     S
V1     V3    10.0   .     S
V1     V7    10.0   .     S
V1     V13    10.0   .     S
V1     V21    10.0   .     S
V2     V3    10.0   1_655     S
V2     V4    10.0   .     S
V2     V8    10.0   .     S
V2     V14    10.0   .     S
V2     V22    10.0   .     S
V3     V2    10.0   1_455     S
V3     V5    10.0   1_556     S
V3     V10    10.0   1_456     S
V3     V19    10.0   1_556     S
V4     V6    10.0   1_556     S
V4     V9    10.0   1_556     S
V4     V20    10.0   1_556     S
V5     V8    10.0   1_455     S
V5     V7    10.0   .     S
V5     V3    10.0   1_554     S
V5     V11    10.0   .     S
V5     V18    10.0   1_455     S
V6     V7    10.0   .     S
V6     V8    10.0   .     S
V6     V4    10.0   1_554     S
V6     V12    10.0   .     S
V6     V17    10.0   .     S
V7     V15    10.0   .     S
V7     V23    10.0   .     S
V8     V5    10.0   1_655     S
V8     V16    10.0   .     S
V8     V24    10.0   .     S
V9     V11    10.0   .     S
V9     V12    10.0   .     S
V9     V13    10.0   1_554     S
V9     V4    10.0   1_554     S
V9     V27    10.0   1_554     S
V10     V12    10.0   .     S
V10     V11    10.0   1_655     S
V10     V14    10.0   1_554     S
V10     V3    10.0   1_654     S
V10     V28    10.0   1_554     S
V11     V10    10.0   1_455     S
V11     V15    10.0   .     S
V11     V29    10.0   .     S
V12     V16    10.0   .     S
V12     V30    10.0   .     S
V13     V15    10.0   .     S
V13     V16    10.0   .     S
V13     V9    10.0   1_556     S
V13     V26    10.0   .     S
V14     V16    10.0   .     S
V14     V15    10.0   1_655     S
V14     V10    10.0   1_556     S
V14     V25    10.0   1_655     S
V15     V14    10.0   1_455     S
V15     V31    10.0   .     S
V16     V32    10.0   .     S
V17     V19    10.0   .     S
V17     V20    10.0   .     S
V17     V23    10.0   .     S
V17     V29    10.0   1_565     S
V18     V20    10.0   .     S
V18     V19    10.0   1_655     S
V18     V24    10.0   .     S
V18     V30    10.0   1_565     S
V18     V5    10.0   1_655     S
V19     V18    10.0   1_455     S
V19     V21    10.0   1_554     S
V19     V27    10.0   1_564     S
V19     V3    10.0   1_554     S
V20     V22    10.0   1_554     S
V20     V28    10.0   1_564     S
V20     V4    10.0   1_554     S
V21     V23    10.0   .     S
V21     V24    10.0   1_455     S
V21     V19    10.0   1_556     S
V21     V25    10.0   1_565     S
V22     V24    10.0   .     S
V22     V23    10.0   .     S
V22     V20    10.0   1_556     S
V22     V26    10.0   1_565     S
V23     V32    10.0   1_565     S
V24     V21    10.0   1_655     S
V24     V31    10.0   1_665     S
V25     V28    10.0   1_455     S
V25     V27    10.0   .     S
V25     V31    10.0   .     S
V25     V21    10.0   1_545     S
V25     V14    10.0   1_455     S
V26     V27    10.0   .     S
V26     V28    10.0   .     S
V26     V32    10.0   .     S
V26     V22    10.0   1_545     S
V27     V19    10.0   1_546     S
V27     V29    10.0   1_556     S
V27     V9    10.0   1_556     S
V28     V20    10.0   1_546     S
V28     V25    10.0   1_655     S
V28     V30    10.0   1_556     S
V28     V10    10.0   1_556     S
V29     V17    10.0   1_545     S
V29     V32    10.0   .     S
V29     V31    10.0   .     S
V29     V27    10.0   1_554     S
V30     V18    10.0   1_545     S
V30     V31    10.0   1_655     S
V30     V32    10.0   .     S
V30     V28    10.0   1_554     S
V31     V24    10.0   1_445     S
V31     V30    10.0   1_455     S
V32     V23    10.0   1_545     S
