data_fon
_audit_creation_date              2019-12-31
_audit_creation_method            'Pymatgen'
_symmetry_space_group_name_H-M    'P1'
_symmetry_Int_Tables_number       1
loop_
_symmetry_equiv_pos_as_xyz
  x,y,z
_cell_length_a                    34.6496
_cell_length_b                    34.6496
_cell_length_c                    24.4827
_cell_angle_alpha                 90.0
_cell_angle_beta                 90.0
_cell_angle_gamma                 90.0
loop_
_atom_site_label
_atom_site_type_symbol
_atom_site_fract_x
_atom_site_fract_y
_atom_site_fract_z
V1     V     0.125   0.2086   0.9163
V2     V     0.125   0.7086   0.9163
V3     V     0.625   0.2086   0.9163
V4     V     0.625   0.7086   0.9163
V5     V     0.125   0.0414   0.9163
V6     V     0.125   0.5414   0.9163
V7     V     0.625   0.0414   0.9163
V8     V     0.625   0.5414   0.9163
Er9     Er     0.125   0.375   0.25
Er10     Er     0.125   0.875   0.25
Er11     Er     0.625   0.375   0.25
Er12     Er     0.625   0.875   0.25
V13     V     0.2914   0.375   0.5837
V14     V     0.2914   0.875   0.5837
V15     V     0.7914   0.375   0.5837
V16     V     0.7914   0.875   0.5837
V17     V     0.4586   0.375   0.5837
V18     V     0.4586   0.875   0.5837
V19     V     0.9586   0.375   0.5837
V20     V     0.9586   0.875   0.5837
V21     V     0.2086   0.125   0.4163
V22     V     0.2086   0.625   0.4163
V23     V     0.7086   0.125   0.4163
V24     V     0.7086   0.625   0.4163
V25     V     0.0414   0.125   0.4163
V26     V     0.0414   0.625   0.4163
V27     V     0.5414   0.125   0.4163
V28     V     0.5414   0.625   0.4163
Er29     Er     0.375   0.125   0.75
Er30     Er     0.375   0.625   0.75
Er31     Er     0.875   0.125   0.75
Er32     Er     0.875   0.625   0.75
V33     V     0.375   0.2914   0.0837
V34     V     0.375   0.7914   0.0837
V35     V     0.875   0.2914   0.0837
V36     V     0.875   0.7914   0.0837
V37     V     0.375   0.4586   0.0837
V38     V     0.375   0.9586   0.0837
V39     V     0.875   0.4586   0.0837
V40     V     0.875   0.9586   0.0837
loop_
_geom_bond_atom_site_label_1
_geom_bond_atom_site_label_2
_geom_bond_distance
_geom_bond_site_symmetry_2
_ccdc_geom_bond_type
V1     Er29    10.0   .     S
V1     Er9    10.0   1_556     S
V1     Er31    10.0   1_455     S
V2     Er30    10.0   .     S
V2     Er10    10.0   1_556     S
V2     Er32    10.0   1_455     S
V3     Er31    10.0   .     S
V3     Er11    10.0   1_556     S
V3     Er29    10.0   .     S
V4     Er32    10.0   .     S
V4     Er12    10.0   1_556     S
V4     Er30    10.0   .     S
V5     Er29    10.0   .     S
V5     Er10    10.0   1_546     S
V5     Er31    10.0   1_455     S
V6     Er30    10.0   .     S
V6     Er9    10.0   1_556     S
V6     Er32    10.0   1_455     S
V7     Er31    10.0   .     S
V7     Er12    10.0   1_546     S
V7     Er29    10.0   .     S
V8     Er32    10.0   .     S
V8     Er11    10.0   1_556     S
V8     Er30    10.0   .     S
Er9     V21    10.0   .     S
Er9     V25    10.0   .     S
Er9     V33    10.0   .     S
Er9     V37    10.0   .     S
Er9     V39    10.0   1_455     S
Er9     V35    10.0   1_455     S
Er9     V26    10.0   .     S
Er9     V22    10.0   .     S
Er9     V1    10.0   1_554     S
Er9     V6    10.0   1_554     S
Er9     V13    10.0   .     S
Er9     V19    10.0   1_455     S
Er10     V22    10.0   .     S
Er10     V26    10.0   .     S
Er10     V34    10.0   .     S
Er10     V38    10.0   .     S
Er10     V40    10.0   1_455     S
Er10     V36    10.0   1_455     S
Er10     V25    10.0   1_565     S
Er10     V21    10.0   1_565     S
Er10     V2    10.0   1_554     S
Er10     V5    10.0   1_564     S
Er10     V14    10.0   .     S
Er10     V20    10.0   1_455     S
Er11     V23    10.0   .     S
Er11     V27    10.0   .     S
Er11     V35    10.0   .     S
Er11     V39    10.0   .     S
Er11     V37    10.0   .     S
Er11     V33    10.0   .     S
Er11     V28    10.0   .     S
Er11     V24    10.0   .     S
Er11     V3    10.0   1_554     S
Er11     V8    10.0   1_554     S
Er11     V15    10.0   .     S
Er11     V17    10.0   .     S
Er12     V24    10.0   .     S
Er12     V28    10.0   .     S
Er12     V36    10.0   .     S
Er12     V40    10.0   .     S
Er12     V38    10.0   .     S
Er12     V34    10.0   .     S
Er12     V27    10.0   1_565     S
Er12     V23    10.0   1_565     S
Er12     V4    10.0   1_554     S
Er12     V7    10.0   1_564     S
Er12     V16    10.0   .     S
Er12     V18    10.0   .     S
V13     Er29    10.0   .     S
V13     Er30    10.0   .     S
V14     Er30    10.0   .     S
V14     Er29    10.0   1_565     S
V15     Er31    10.0   .     S
V15     Er32    10.0   .     S
V16     Er32    10.0   .     S
V16     Er31    10.0   1_565     S
V17     Er29    10.0   .     S
V17     Er30    10.0   .     S
V18     Er30    10.0   .     S
V18     Er29    10.0   1_565     S
V19     Er31    10.0   .     S
V19     Er32    10.0   .     S
V19     Er9    10.0   1_655     S
V20     Er32    10.0   .     S
V20     Er31    10.0   1_565     S
V20     Er10    10.0   1_655     S
V21     Er10    10.0   1_545     S
V21     Er29    10.0   .     S
V22     Er30    10.0   .     S
V23     Er12    10.0   1_545     S
V23     Er31    10.0   .     S
V24     Er32    10.0   .     S
V25     Er10    10.0   1_545     S
V25     Er31    10.0   1_455     S
V26     Er32    10.0   1_455     S
V27     Er12    10.0   1_545     S
V27     Er29    10.0   .     S
V28     Er30    10.0   .     S
Er29     V14    10.0   1_545     S
Er29     V18    10.0   1_545     S
Er29     V33    10.0   1_556     S
Er29     V38    10.0   1_546     S
Er30     V34    10.0   1_556     S
Er30     V37    10.0   1_556     S
Er31     V16    10.0   1_545     S
Er31     V20    10.0   1_545     S
Er31     V1    10.0   1_655     S
Er31     V5    10.0   1_655     S
Er31     V25    10.0   1_655     S
Er31     V35    10.0   1_556     S
Er31     V40    10.0   1_546     S
Er32     V2    10.0   1_655     S
Er32     V6    10.0   1_655     S
Er32     V26    10.0   1_655     S
Er32     V36    10.0   1_556     S
Er32     V39    10.0   1_556     S
V33     Er29    10.0   1_554     S
V34     Er30    10.0   1_554     S
V35     Er9    10.0   1_655     S
V35     Er31    10.0   1_554     S
V36     Er10    10.0   1_655     S
V36     Er32    10.0   1_554     S
V37     Er30    10.0   1_554     S
V38     Er29    10.0   1_564     S
V39     Er9    10.0   1_655     S
V39     Er32    10.0   1_554     S
V40     Er10    10.0   1_655     S
V40     Er31    10.0   1_564     S
