data_frl
_audit_creation_date              2019-12-31
_audit_creation_method            'Pymatgen'
_symmetry_space_group_name_H-M    'P1'
_symmetry_Int_Tables_number       1
loop_
_symmetry_equiv_pos_as_xyz
  x,y,z
_cell_length_a                    38.8115
_cell_length_b                    36.3938
_cell_length_c                    22.9324
_cell_angle_alpha                 90.0
_cell_angle_beta                 90.0
_cell_angle_gamma                 90.0
loop_
_atom_site_label
_atom_site_type_symbol
_atom_site_fract_x
_atom_site_fract_y
_atom_site_fract_z
Er1     Er     0.6965   0.25   0.718
Er2     Er     0.6965   0.75   0.718
Er3     Er     0.6965   0.25   0.282
Er4     Er     0.6965   0.75   0.282
V5     V     0.5   0.25   0.0
V6     V     0.5   0.75   0.0
Er7     Er     0.3035   0.25   0.718
Er8     Er     0.3035   0.75   0.718
Er9     Er     0.3035   0.25   0.282
Er10     Er     0.3035   0.75   0.282
Er11     Er     0.8035   0.0   0.718
Er12     Er     0.8035   0.5   0.718
Er13     Er     0.8035   0.0   0.282
Er14     Er     0.8035   0.5   0.282
V15     V     0.0   0.0   0.0
V16     V     0.0   0.5   0.0
Er17     Er     0.1965   0.0   0.718
Er18     Er     0.1965   0.5   0.718
Er19     Er     0.1965   0.0   0.282
Er20     Er     0.1965   0.5   0.282
loop_
_geom_bond_atom_site_label_1
_geom_bond_atom_site_label_2
_geom_bond_distance
_geom_bond_site_symmetry_2
_ccdc_geom_bond_type
Er1     Er3    10.0   .     S
Er1     V5    10.0   1_556     S
Er1     Er12    10.0   .     S
Er1     Er11    10.0   .     S
Er2     Er4    10.0   .     S
Er2     V6    10.0   1_556     S
Er2     Er11    10.0   1_565     S
Er2     Er12    10.0   .     S
Er3     V5    10.0   .     S
Er3     Er13    10.0   .     S
Er3     Er14    10.0   .     S
Er4     V6    10.0   .     S
Er4     Er14    10.0   .     S
Er4     Er13    10.0   1_565     S
V5     Er1    10.0   1_554     S
V5     Er9    10.0   .     S
V5     Er7    10.0   1_554     S
V6     Er2    10.0   1_554     S
V6     Er10    10.0   .     S
V6     Er8    10.0   1_554     S
Er7     V5    10.0   1_556     S
Er7     Er9    10.0   .     S
Er7     Er17    10.0   .     S
Er7     Er18    10.0   .     S
Er8     V6    10.0   1_556     S
Er8     Er10    10.0   .     S
Er8     Er18    10.0   .     S
Er8     Er17    10.0   1_565     S
Er9     Er20    10.0   .     S
Er9     Er19    10.0   .     S
Er10     Er19    10.0   1_565     S
Er10     Er20    10.0   .     S
Er11     Er13    10.0   .     S
Er11     V15    10.0   1_656     S
Er11     Er2    10.0   1_545     S
Er12     Er14    10.0   .     S
Er12     V16    10.0   1_656     S
Er13     V15    10.0   1_655     S
Er13     Er4    10.0   1_545     S
Er14     V16    10.0   1_655     S
V15     Er13    10.0   1_455     S
V15     Er11    10.0   1_454     S
V15     Er19    10.0   .     S
V15     Er17    10.0   1_554     S
V16     Er14    10.0   1_455     S
V16     Er12    10.0   1_454     S
V16     Er20    10.0   .     S
V16     Er18    10.0   1_554     S
Er17     V15    10.0   1_556     S
Er17     Er19    10.0   .     S
Er17     Er8    10.0   1_545     S
Er18     V16    10.0   1_556     S
Er18     Er20    10.0   .     S
Er19     Er10    10.0   1_545     S
