data_fry
_audit_creation_date              2019-12-31
_audit_creation_method            'Pymatgen'
_symmetry_space_group_name_H-M    'P1'
_symmetry_Int_Tables_number       1
loop_
_symmetry_equiv_pos_as_xyz
  x,y,z
_cell_length_a                    56.7156
_cell_length_b                    37.8714
_cell_length_c                    33.0694
_cell_angle_alpha                 90.0
_cell_angle_beta                 90.0
_cell_angle_gamma                 90.0
loop_
_atom_site_label
_atom_site_type_symbol
_atom_site_fract_x
_atom_site_fract_y
_atom_site_fract_z
V1     V     0.5882   0.0   0.8488
V2     V     0.5882   0.5   0.8488
Er3     Er     0.7216   0.0   0.6512
Er4     Er     0.7216   0.5   0.6512
Er5     Er     0.2784   0.0   0.6512
Er6     Er     0.2784   0.5   0.6512
V7     V     0.4118   0.0   0.8488
V8     V     0.4118   0.5   0.8488
Er9     Er     0.2216   0.25   0.6512
Er10     Er     0.2216   0.75   0.6512
V11     V     0.0882   0.25   0.8488
V12     V     0.0882   0.75   0.8488
V13     V     0.9118   0.25   0.8488
V14     V     0.9118   0.75   0.8488
Er15     Er     0.7784   0.25   0.6512
Er16     Er     0.7784   0.75   0.6512
V17     V     0.5882   0.0   0.1512
V18     V     0.5882   0.5   0.1512
Er19     Er     0.7216   0.0   0.3488
Er20     Er     0.7216   0.5   0.3488
Er21     Er     0.2784   0.0   0.3488
Er22     Er     0.2784   0.5   0.3488
V23     V     0.4118   0.0   0.1512
V24     V     0.4118   0.5   0.1512
Er25     Er     0.2216   0.25   0.3488
Er26     Er     0.2216   0.75   0.3488
V27     V     0.0882   0.25   0.1512
V28     V     0.0882   0.75   0.1512
V29     V     0.9118   0.25   0.1512
V30     V     0.9118   0.75   0.1512
Er31     Er     0.7784   0.25   0.3488
Er32     Er     0.7784   0.75   0.3488
loop_
_geom_bond_atom_site_label_1
_geom_bond_atom_site_label_2
_geom_bond_distance
_geom_bond_site_symmetry_2
_ccdc_geom_bond_type
V1     Er3    10.0   .     S
V1     V7    10.0   .     S
V1     V17    10.0   1_556     S
V2     Er4    10.0   .     S
V2     V8    10.0   .     S
V2     V18    10.0   1_556     S
Er3     Er15    10.0   .     S
Er3     Er16    10.0   1_545     S
Er3     Er19    10.0   .     S
Er4     Er16    10.0   .     S
Er4     Er15    10.0   .     S
Er4     Er20    10.0   .     S
Er5     V7    10.0   .     S
Er5     Er10    10.0   1_545     S
Er5     Er9    10.0   .     S
Er5     Er21    10.0   .     S
Er6     V8    10.0   .     S
Er6     Er9    10.0   .     S
Er6     Er10    10.0   .     S
Er6     Er22    10.0   .     S
V7     V23    10.0   1_556     S
V8     V24    10.0   1_556     S
Er9     V11    10.0   .     S
Er9     Er25    10.0   .     S
Er10     Er5    10.0   1_565     S
Er10     V12    10.0   .     S
Er10     Er26    10.0   .     S
V11     V13    10.0   1_455     S
V11     V27    10.0   1_556     S
V12     V14    10.0   1_455     S
V12     V28    10.0   1_556     S
V13     Er15    10.0   .     S
V13     V11    10.0   1_655     S
V13     V29    10.0   1_556     S
V14     Er16    10.0   .     S
V14     V12    10.0   1_655     S
V14     V30    10.0   1_556     S
Er15     Er31    10.0   .     S
Er16     Er3    10.0   1_565     S
Er16     Er32    10.0   .     S
V17     Er19    10.0   .     S
V17     V23    10.0   .     S
V17     V1    10.0   1_554     S
V18     Er20    10.0   .     S
V18     V24    10.0   .     S
V18     V2    10.0   1_554     S
Er19     Er31    10.0   .     S
Er19     Er32    10.0   1_545     S
Er20     Er32    10.0   .     S
Er20     Er31    10.0   .     S
Er21     V23    10.0   .     S
Er21     Er26    10.0   1_545     S
Er21     Er25    10.0   .     S
Er22     V24    10.0   .     S
Er22     Er25    10.0   .     S
Er22     Er26    10.0   .     S
V23     V7    10.0   1_554     S
V24     V8    10.0   1_554     S
Er25     V27    10.0   .     S
Er26     Er21    10.0   1_565     S
Er26     V28    10.0   .     S
V27     V29    10.0   1_455     S
V27     V11    10.0   1_554     S
V28     V30    10.0   1_455     S
V28     V12    10.0   1_554     S
V29     Er31    10.0   .     S
V29     V27    10.0   1_655     S
V29     V13    10.0   1_554     S
V30     Er32    10.0   .     S
V30     V28    10.0   1_655     S
V30     V14    10.0   1_554     S
Er32     Er19    10.0   1_565     S
