data_frz
_audit_creation_date              2019-12-31
_audit_creation_method            'Pymatgen'
_symmetry_space_group_name_H-M    'P1'
_symmetry_Int_Tables_number       1
loop_
_symmetry_equiv_pos_as_xyz
  x,y,z
_cell_length_a                    38.9966
_cell_length_b                    84.5629
_cell_length_c                    35.4215
_cell_angle_alpha                 90.0
_cell_angle_beta                 90.0
_cell_angle_gamma                 90.0
loop_
_atom_site_label
_atom_site_type_symbol
_atom_site_fract_x
_atom_site_fract_y
_atom_site_fract_z
V1     V     0.0   0.7632   0.3588
V2     V     0.5   0.7632   0.3588
Ti3     Ti     0.0   0.8385   0.1412
Ti4     Ti     0.5   0.8385   0.1412
Ti5     Ti     0.25   0.6615   0.1412
Ti6     Ti     0.75   0.6615   0.1412
V7     V     0.25   0.7368   0.3588
V8     V     0.75   0.7368   0.3588
V9     V     0.0   0.7632   0.6412
V10     V     0.5   0.7632   0.6412
Ti11     Ti     0.0   0.8385   0.8588
Ti12     Ti     0.5   0.8385   0.8588
Ti13     Ti     0.25   0.6615   0.8588
Ti14     Ti     0.75   0.6615   0.8588
V15     V     0.25   0.7368   0.6412
V16     V     0.75   0.7368   0.6412
Er17     Er     0.25   0.4409   0.0
Er18     Er     0.75   0.4409   0.0
Er19     Er     0.25   0.5591   0.0
Er20     Er     0.75   0.5591   0.0
Ti21     Ti     0.25   0.3385   0.1412
Ti22     Ti     0.75   0.3385   0.1412
V23     V     0.25   0.2632   0.3588
V24     V     0.75   0.2632   0.3588
V25     V     0.0   0.2368   0.3588
V26     V     0.5   0.2368   0.3588
Ti27     Ti     0.0   0.1615   0.1412
Ti28     Ti     0.5   0.1615   0.1412
V29     V     0.25   0.2632   0.6412
V30     V     0.75   0.2632   0.6412
Ti31     Ti     0.25   0.3385   0.8588
Ti32     Ti     0.75   0.3385   0.8588
V33     V     0.0   0.2368   0.6412
V34     V     0.5   0.2368   0.6412
Ti35     Ti     0.0   0.1615   0.8588
Ti36     Ti     0.5   0.1615   0.8588
Er37     Er     0.0   0.0591   0.0
Er38     Er     0.5   0.0591   0.0
Er39     Er     0.0   0.9409   0.0
Er40     Er     0.5   0.9409   0.0
loop_
_geom_bond_atom_site_label_1
_geom_bond_atom_site_label_2
_geom_bond_distance
_geom_bond_site_symmetry_2
_ccdc_geom_bond_type
V1     Ti3    10.0   .     S
V1     V8    10.0   1_455     S
V1     V7    10.0   .     S
V1     V9    10.0   .     S
V2     Ti4    10.0   .     S
V2     V7    10.0   .     S
V2     V8    10.0   .     S
V2     V10    10.0   .     S
Ti3     Ti11    10.0   1_554     S
Ti3     Er39    10.0   .     S
Ti4     Ti12    10.0   1_554     S
Ti4     Er40    10.0   .     S
Ti5     V7    10.0   .     S
Ti5     Ti13    10.0   1_554     S
Ti5     Er19    10.0   .     S
Ti6     V8    10.0   .     S
Ti6     Ti14    10.0   1_554     S
Ti6     Er20    10.0   .     S
V7     V15    10.0   .     S
V8     V1    10.0   1_655     S
V8     V16    10.0   .     S
V9     Ti11    10.0   .     S
V9     V15    10.0   .     S
V9     V16    10.0   1_455     S
V10     Ti12    10.0   .     S
V10     V16    10.0   .     S
V10     V15    10.0   .     S
Ti11     Ti3    10.0   1_556     S
Ti11     Er39    10.0   1_556     S
Ti12     Ti4    10.0   1_556     S
Ti12     Er40    10.0   1_556     S
Ti13     V15    10.0   .     S
Ti13     Ti5    10.0   1_556     S
Ti13     Er19    10.0   1_556     S
Ti14     V16    10.0   .     S
Ti14     Ti6    10.0   1_556     S
Ti14     Er20    10.0   1_556     S
V16     V9    10.0   1_655     S
Er17     Ti21    10.0   .     S
Er17     Ti31    10.0   1_554     S
Er17     Er19    10.0   .     S
Er18     Ti22    10.0   .     S
Er18     Ti32    10.0   1_554     S
Er18     Er20    10.0   .     S
Er19     Ti13    10.0   1_554     S
Er20     Ti14    10.0   1_554     S
Ti21     V23    10.0   .     S
Ti21     Ti31    10.0   1_554     S
Ti22     V24    10.0   .     S
Ti22     Ti32    10.0   1_554     S
V23     V25    10.0   .     S
V23     V26    10.0   .     S
V23     V29    10.0   .     S
V24     V26    10.0   .     S
V24     V25    10.0   1_655     S
V24     V30    10.0   .     S
V25     Ti27    10.0   .     S
V25     V24    10.0   1_455     S
V25     V33    10.0   .     S
V26     Ti28    10.0   .     S
V26     V34    10.0   .     S
Ti27     Ti35    10.0   1_554     S
Ti27     Er37    10.0   .     S
Ti28     Ti36    10.0   1_554     S
Ti28     Er38    10.0   .     S
V29     Ti31    10.0   .     S
V29     V34    10.0   .     S
V29     V33    10.0   .     S
V30     Ti32    10.0   .     S
V30     V33    10.0   1_655     S
V30     V34    10.0   .     S
Ti31     Er17    10.0   1_556     S
Ti31     Ti21    10.0   1_556     S
Ti32     Er18    10.0   1_556     S
Ti32     Ti22    10.0   1_556     S
V33     Ti35    10.0   .     S
V33     V30    10.0   1_455     S
V34     Ti36    10.0   .     S
Ti35     Ti27    10.0   1_556     S
Ti35     Er37    10.0   1_556     S
Ti36     Ti28    10.0   1_556     S
Ti36     Er38    10.0   1_556     S
Er37     Ti35    10.0   1_554     S
Er37     Er39    10.0   1_545     S
Er38     Ti36    10.0   1_554     S
Er38     Er40    10.0   1_545     S
Er39     Ti11    10.0   1_554     S
Er39     Er37    10.0   1_565     S
Er40     Ti12    10.0   1_554     S
Er40     Er38    10.0   1_565     S
