data_fsf
_audit_creation_date              2019-12-31
_audit_creation_method            'Pymatgen'
_symmetry_space_group_name_H-M    'P1'
_symmetry_Int_Tables_number       1
loop_
_symmetry_equiv_pos_as_xyz
  x,y,z
_cell_length_a                    34.2852
_cell_length_b                    29.9997
_cell_length_c                    27.6227
_cell_angle_alpha                 90.0
_cell_angle_beta                 90.0
_cell_angle_gamma                 90.0
loop_
_atom_site_label
_atom_site_type_symbol
_atom_site_fract_x
_atom_site_fract_y
_atom_site_fract_z
Er1     Er     0.25   0.0   0.6865
Er2     Er     0.25   0.3333   0.6865
Er3     Er     0.25   0.6667   0.6865
Er4     Er     0.75   0.0   0.6865
Er5     Er     0.75   0.3333   0.6865
Er6     Er     0.75   0.6667   0.6865
V7     V     0.25   0.1667   0.0
V8     V     0.25   0.5   0.0
V9     V     0.25   0.8333   0.0
V10     V     0.75   0.1667   0.0
V11     V     0.75   0.5   0.0
V12     V     0.75   0.8333   0.0
Er13     Er     0.0   0.1667   0.1865
Er14     Er     0.0   0.5   0.1865
Er15     Er     0.0   0.8333   0.1865
Er16     Er     0.5   0.1667   0.1865
Er17     Er     0.5   0.5   0.1865
Er18     Er     0.5   0.8333   0.1865
V19     V     0.0   0.0   0.5
V20     V     0.0   0.3333   0.5
V21     V     0.0   0.6667   0.5
V22     V     0.5   0.0   0.5
V23     V     0.5   0.3333   0.5
V24     V     0.5   0.6667   0.5
loop_
_geom_bond_atom_site_label_1
_geom_bond_atom_site_label_2
_geom_bond_distance
_geom_bond_site_symmetry_2
_ccdc_geom_bond_type
Er1     Er2    10.0   .     S
Er1     Er3    10.0   1_545     S
Er1     V9    10.0   1_546     S
Er1     V7    10.0   1_556     S
Er1     V19    10.0   .     S
Er1     V22    10.0   .     S
Er2     Er3    10.0   .     S
Er2     V7    10.0   1_556     S
Er2     V8    10.0   1_556     S
Er2     V20    10.0   .     S
Er2     V23    10.0   .     S
Er3     Er1    10.0   1_565     S
Er3     V8    10.0   1_556     S
Er3     V9    10.0   1_556     S
Er3     V21    10.0   .     S
Er3     V24    10.0   .     S
Er4     Er5    10.0   .     S
Er4     Er6    10.0   1_545     S
Er4     V12    10.0   1_546     S
Er4     V10    10.0   1_556     S
Er4     V22    10.0   .     S
Er4     V19    10.0   1_655     S
Er5     Er6    10.0   .     S
Er5     V10    10.0   1_556     S
Er5     V11    10.0   1_556     S
Er5     V23    10.0   .     S
Er5     V20    10.0   1_655     S
Er6     Er4    10.0   1_565     S
Er6     V11    10.0   1_556     S
Er6     V12    10.0   1_556     S
Er6     V24    10.0   .     S
Er6     V21    10.0   1_655     S
V7     Er2    10.0   1_554     S
V7     Er1    10.0   1_554     S
V7     Er16    10.0   .     S
V7     Er13    10.0   .     S
V8     Er3    10.0   1_554     S
V8     Er2    10.0   1_554     S
V8     Er17    10.0   .     S
V8     Er14    10.0   .     S
V9     Er1    10.0   1_564     S
V9     Er3    10.0   1_554     S
V9     Er18    10.0   .     S
V9     Er15    10.0   .     S
V10     Er5    10.0   1_554     S
V10     Er4    10.0   1_554     S
V10     Er13    10.0   1_655     S
V10     Er16    10.0   .     S
V11     Er6    10.0   1_554     S
V11     Er5    10.0   1_554     S
V11     Er14    10.0   1_655     S
V11     Er17    10.0   .     S
V12     Er4    10.0   1_564     S
V12     Er6    10.0   1_554     S
V12     Er15    10.0   1_655     S
V12     Er18    10.0   .     S
Er13     V19    10.0   .     S
Er13     V20    10.0   .     S
Er13     Er15    10.0   1_545     S
Er13     Er14    10.0   .     S
Er13     V10    10.0   1_455     S
Er14     V20    10.0   .     S
Er14     V21    10.0   .     S
Er14     Er15    10.0   .     S
Er14     V11    10.0   1_455     S
Er15     V21    10.0   .     S
Er15     V19    10.0   1_565     S
Er15     Er13    10.0   1_565     S
Er15     V12    10.0   1_455     S
Er16     V22    10.0   .     S
Er16     V23    10.0   .     S
Er16     Er18    10.0   1_545     S
Er16     Er17    10.0   .     S
Er17     V23    10.0   .     S
Er17     V24    10.0   .     S
Er17     Er18    10.0   .     S
Er18     V24    10.0   .     S
Er18     V22    10.0   1_565     S
Er18     Er16    10.0   1_565     S
V19     Er15    10.0   1_545     S
V19     Er4    10.0   1_455     S
V20     Er5    10.0   1_455     S
V21     Er6    10.0   1_455     S
V22     Er18    10.0   1_545     S
