data_fsg
_audit_creation_date              2019-12-31
_audit_creation_method            'Pymatgen'
_symmetry_space_group_name_H-M    'P1'
_symmetry_Int_Tables_number       1
loop_
_symmetry_equiv_pos_as_xyz
  x,y,z
_cell_length_a                    30.0
_cell_length_b                    40.0002
_cell_length_c                    30.0
_cell_angle_alpha                 90.0
_cell_angle_beta                 90.0
_cell_angle_gamma                 90.0
loop_
_atom_site_label
_atom_site_type_symbol
_atom_site_fract_x
_atom_site_fract_y
_atom_site_fract_z
Er1     Er     0.0   0.25   0.0
Er2     Er     0.0   0.25   0.3333
Er3     Er     0.0   0.25   0.6667
Er4     Er     0.0   0.75   0.0
Er5     Er     0.0   0.75   0.3333
Er6     Er     0.0   0.75   0.6667
Er7     Er     0.3333   0.25   0.0
Er8     Er     0.3333   0.25   0.3333
Er9     Er     0.3333   0.25   0.6667
Er10     Er     0.3333   0.75   0.0
Er11     Er     0.3333   0.75   0.3333
Er12     Er     0.3333   0.75   0.6667
Er13     Er     0.6667   0.25   0.0
Er14     Er     0.6667   0.25   0.3333
Er15     Er     0.6667   0.25   0.6667
Er16     Er     0.6667   0.75   0.0
Er17     Er     0.6667   0.75   0.3333
Er18     Er     0.6667   0.75   0.6667
V19     V     0.0   0.0   0.0
V20     V     0.0   0.0   0.3333
V21     V     0.0   0.0   0.6667
V22     V     0.0   0.5   0.0
V23     V     0.0   0.5   0.3333
V24     V     0.0   0.5   0.6667
V25     V     0.3333   0.0   0.0
V26     V     0.3333   0.0   0.3333
V27     V     0.3333   0.0   0.6667
V28     V     0.3333   0.5   0.0
V29     V     0.3333   0.5   0.3333
V30     V     0.3333   0.5   0.6667
V31     V     0.6667   0.0   0.0
V32     V     0.6667   0.0   0.3333
V33     V     0.6667   0.0   0.6667
V34     V     0.6667   0.5   0.0
V35     V     0.6667   0.5   0.3333
V36     V     0.6667   0.5   0.6667
loop_
_geom_bond_atom_site_label_1
_geom_bond_atom_site_label_2
_geom_bond_distance
_geom_bond_site_symmetry_2
_ccdc_geom_bond_type
Er1     Er2    10.0   .     S
Er1     Er3    10.0   1_554     S
Er1     Er7    10.0   .     S
Er1     Er13    10.0   1_455     S
Er1     V22    10.0   .     S
Er1     V19    10.0   .     S
Er2     Er3    10.0   .     S
Er2     Er8    10.0   .     S
Er2     Er14    10.0   1_455     S
Er2     V23    10.0   .     S
Er2     V20    10.0   .     S
Er3     Er1    10.0   1_556     S
Er3     Er9    10.0   .     S
Er3     Er15    10.0   1_455     S
Er3     V24    10.0   .     S
Er3     V21    10.0   .     S
Er4     Er5    10.0   .     S
Er4     Er6    10.0   1_554     S
Er4     Er10    10.0   .     S
Er4     Er16    10.0   1_455     S
Er4     V19    10.0   1_565     S
Er4     V22    10.0   .     S
Er5     Er6    10.0   .     S
Er5     Er11    10.0   .     S
Er5     Er17    10.0   1_455     S
Er5     V20    10.0   1_565     S
Er5     V23    10.0   .     S
Er6     Er4    10.0   1_556     S
Er6     Er12    10.0   .     S
Er6     Er18    10.0   1_455     S
Er6     V21    10.0   1_565     S
Er6     V24    10.0   .     S
Er7     Er8    10.0   .     S
Er7     Er9    10.0   1_554     S
Er7     Er13    10.0   .     S
Er7     V28    10.0   .     S
Er7     V25    10.0   .     S
Er8     Er9    10.0   .     S
Er8     Er14    10.0   .     S
Er8     V29    10.0   .     S
Er8     V26    10.0   .     S
Er9     Er7    10.0   1_556     S
Er9     Er15    10.0   .     S
Er9     V30    10.0   .     S
Er9     V27    10.0   .     S
Er10     Er11    10.0   .     S
Er10     Er12    10.0   1_554     S
Er10     Er16    10.0   .     S
Er10     V25    10.0   1_565     S
Er10     V28    10.0   .     S
Er11     Er12    10.0   .     S
Er11     Er17    10.0   .     S
Er11     V26    10.0   1_565     S
Er11     V29    10.0   .     S
Er12     Er10    10.0   1_556     S
Er12     Er18    10.0   .     S
Er12     V27    10.0   1_565     S
Er12     V30    10.0   .     S
Er13     Er14    10.0   .     S
Er13     Er15    10.0   1_554     S
Er13     Er1    10.0   1_655     S
Er13     V34    10.0   .     S
Er13     V31    10.0   .     S
Er14     Er15    10.0   .     S
Er14     Er2    10.0   1_655     S
Er14     V35    10.0   .     S
Er14     V32    10.0   .     S
Er15     Er13    10.0   1_556     S
Er15     Er3    10.0   1_655     S
Er15     V36    10.0   .     S
Er15     V33    10.0   .     S
Er16     Er17    10.0   .     S
Er16     Er18    10.0   1_554     S
Er16     Er4    10.0   1_655     S
Er16     V31    10.0   1_565     S
Er16     V34    10.0   .     S
Er17     Er18    10.0   .     S
Er17     Er5    10.0   1_655     S
Er17     V32    10.0   1_565     S
Er17     V35    10.0   .     S
Er18     Er16    10.0   1_556     S
Er18     Er6    10.0   1_655     S
Er18     V33    10.0   1_565     S
Er18     V36    10.0   .     S
V19     Er4    10.0   1_545     S
V19     V20    10.0   .     S
V19     V21    10.0   1_554     S
V20     Er5    10.0   1_545     S
V20     V21    10.0   .     S
V21     Er6    10.0   1_545     S
V21     V19    10.0   1_556     S
V22     V23    10.0   .     S
V22     V24    10.0   1_554     S
V23     V24    10.0   .     S
V24     V22    10.0   1_556     S
V25     Er10    10.0   1_545     S
V25     V26    10.0   .     S
V25     V27    10.0   1_554     S
V26     Er11    10.0   1_545     S
V26     V27    10.0   .     S
V27     Er12    10.0   1_545     S
V27     V25    10.0   1_556     S
V28     V29    10.0   .     S
V28     V30    10.0   1_554     S
V29     V30    10.0   .     S
V30     V28    10.0   1_556     S
V31     Er16    10.0   1_545     S
V31     V32    10.0   .     S
V31     V33    10.0   1_554     S
V32     Er17    10.0   1_545     S
V32     V33    10.0   .     S
V33     Er18    10.0   1_545     S
V33     V31    10.0   1_556     S
V34     V35    10.0   .     S
V34     V36    10.0   1_554     S
V35     V36    10.0   .     S
V36     V34    10.0   1_556     S
