data_fsh
_audit_creation_date              2019-12-31
_audit_creation_method            'Pymatgen'
_symmetry_space_group_name_H-M    'P1'
_symmetry_Int_Tables_number       1
loop_
_symmetry_equiv_pos_as_xyz
  x,y,z
_cell_length_a                    31.2508
_cell_length_b                    31.2508
_cell_length_c                    55.8876
_cell_angle_alpha                 90.0
_cell_angle_beta                 90.0
_cell_angle_gamma                 120.0
loop_
_atom_site_label
_atom_site_type_symbol
_atom_site_fract_x
_atom_site_fract_y
_atom_site_fract_z
Er1     Er     0.3333   0.1667   0.8333
Er2     Er     0.3333   0.6667   0.8333
Er3     Er     0.8333   0.1667   0.8333
Er4     Er     0.8333   0.6667   0.8333
V5     V     0.1667   0.3333   0.7561
V6     V     0.1667   0.8333   0.7561
V7     V     0.6667   0.3333   0.7561
V8     V     0.6667   0.8333   0.7561
V9     V     0.0   0.0   0.9105
V10     V     0.0   0.5   0.9105
V11     V     0.5   0.0   0.9105
V12     V     0.5   0.5   0.9105
Er13     Er     0.0   0.0   0.5
Er14     Er     0.0   0.5   0.5
Er15     Er     0.5   0.0   0.5
Er16     Er     0.5   0.5   0.5
V17     V     0.3333   0.1667   0.4228
V18     V     0.3333   0.6667   0.4228
V19     V     0.8333   0.1667   0.4228
V20     V     0.8333   0.6667   0.4228
V21     V     0.1667   0.3333   0.5772
V22     V     0.1667   0.8333   0.5772
V23     V     0.6667   0.3333   0.5772
V24     V     0.6667   0.8333   0.5772
Er25     Er     0.1667   0.3333   0.1667
Er26     Er     0.1667   0.8333   0.1667
Er27     Er     0.6667   0.3333   0.1667
Er28     Er     0.6667   0.8333   0.1667
V29     V     0.0   0.0   0.0895
V30     V     0.0   0.5   0.0895
V31     V     0.5   0.0   0.0895
V32     V     0.5   0.5   0.0895
V33     V     0.3333   0.1667   0.2439
V34     V     0.3333   0.6667   0.2439
V35     V     0.8333   0.1667   0.2439
V36     V     0.8333   0.6667   0.2439
loop_
_geom_bond_atom_site_label_1
_geom_bond_atom_site_label_2
_geom_bond_distance
_geom_bond_site_symmetry_2
_ccdc_geom_bond_type
Er1     V6    10.0   1_545     S
Er1     V7    10.0   .     S
Er1     V11    10.0   .     S
Er1     V5    10.0   .     S
Er1     V9    10.0   .     S
Er1     V12    10.0   .     S
Er2     V5    10.0   .     S
Er2     V8    10.0   .     S
Er2     V12    10.0   .     S
Er2     V6    10.0   .     S
Er2     V10    10.0   .     S
Er2     V11    10.0   1_565     S
Er3     V8    10.0   1_545     S
Er3     V5    10.0   1_655     S
Er3     V9    10.0   1_655     S
Er3     V7    10.0   .     S
Er3     V11    10.0   .     S
Er3     V10    10.0   1_655     S
Er4     V7    10.0   .     S
Er4     V6    10.0   1_655     S
Er4     V10    10.0   1_655     S
Er4     V8    10.0   .     S
Er4     V12    10.0   .     S
Er4     V9    10.0   1_665     S
V5     Er3    10.0   1_455     S
V5     V21    10.001   .     S
V6     Er1    10.0   1_565     S
V6     Er4    10.0   1_455     S
V6     V22    10.001   .     S
V7     V23    10.001   .     S
V8     Er3    10.0   1_565     S
V8     V24    10.001   .     S
V9     Er3    10.0   1_455     S
V9     Er4    10.0   1_445     S
V9     V29    10.001   1_556     S
V10     Er4    10.0   1_455     S
V10     Er3    10.0   1_455     S
V10     V30    10.001   1_556     S
V11     Er2    10.0   1_545     S
V11     V31    10.001   1_556     S
V12     V32    10.001   1_556     S
Er13     V22    10.0   1_545     S
Er13     V19    10.0   1_455     S
Er13     V21    10.0   .     S
Er13     V24    10.0   1_445     S
Er13     V20    10.0   1_445     S
Er13     V17    10.0   .     S
Er14     V21    10.0   .     S
Er14     V20    10.0   1_455     S
Er14     V22    10.0   .     S
Er14     V23    10.0   1_455     S
Er14     V19    10.0   1_455     S
Er14     V18    10.0   .     S
Er15     V24    10.0   1_545     S
Er15     V17    10.0   .     S
Er15     V23    10.0   .     S
Er15     V22    10.0   1_545     S
Er15     V18    10.0   1_545     S
Er15     V19    10.0   .     S
Er16     V23    10.0   .     S
Er16     V18    10.0   .     S
Er16     V24    10.0   .     S
Er16     V21    10.0   .     S
Er16     V17    10.0   .     S
Er16     V20    10.0   .     S
V17     V33    10.001   .     S
V18     Er15    10.0   1_565     S
V18     V34    10.001   .     S
V19     Er13    10.0   1_655     S
V19     Er14    10.0   1_655     S
V19     V35    10.001   .     S
V20     Er14    10.0   1_655     S
V20     Er13    10.0   1_665     S
V20     V36    10.001   .     S
V22     Er13    10.0   1_565     S
V22     Er15    10.0   1_565     S
V23     Er14    10.0   1_655     S
V24     Er15    10.0   1_565     S
V24     Er13    10.0   1_665     S
Er25     V35    10.0   1_455     S
Er25     V34    10.0   .     S
Er25     V30    10.0   .     S
Er25     V33    10.0   .     S
Er25     V29    10.0   .     S
Er25     V32    10.0   .     S
Er26     V36    10.0   1_455     S
Er26     V33    10.0   1_565     S
Er26     V29    10.0   1_565     S
Er26     V34    10.0   .     S
Er26     V30    10.0   .     S
Er26     V31    10.0   1_565     S
Er27     V33    10.0   .     S
Er27     V36    10.0   .     S
Er27     V32    10.0   .     S
Er27     V35    10.0   .     S
Er27     V31    10.0   .     S
Er27     V30    10.0   1_655     S
Er28     V34    10.0   .     S
Er28     V35    10.0   1_565     S
Er28     V31    10.0   1_565     S
Er28     V36    10.0   .     S
Er28     V32    10.0   .     S
Er28     V29    10.0   1_665     S
V29     V9    10.001   1_554     S
V29     Er26    10.0   1_545     S
V29     Er28    10.0   1_445     S
V30     V10    10.001   1_554     S
V30     Er27    10.0   1_455     S
V31     V11    10.001   1_554     S
V31     Er28    10.0   1_545     S
V31     Er26    10.0   1_545     S
V32     V12    10.001   1_554     S
V33     Er26    10.0   1_545     S
V35     Er25    10.0   1_655     S
V35     Er28    10.0   1_545     S
V36     Er26    10.0   1_655     S
