data_fsl
_audit_creation_date              2019-12-31
_audit_creation_method            'Pymatgen'
_symmetry_space_group_name_H-M    'P1'
_symmetry_Int_Tables_number       1
loop_
_symmetry_equiv_pos_as_xyz
  x,y,z
_cell_length_a                    27.3568
_cell_length_b                    22.1432
_cell_length_c                    20.8968
_cell_angle_alpha                 90.0
_cell_angle_beta                 103.8951
_cell_angle_gamma                 90.0
loop_
_atom_site_label
_atom_site_type_symbol
_atom_site_fract_x
_atom_site_fract_y
_atom_site_fract_z
Er1     Er     0.3113   0.3776   0.8339
Er2     Er     0.8113   0.3776   0.8339
V3     V     0.0   0.0   0.0
V4     V     0.5   0.0   0.0
Er5     Er     0.1887   0.6224   0.1661
Er6     Er     0.6888   0.6224   0.1661
Er7     Er     0.1888   0.8776   0.6661
Er8     Er     0.6888   0.8776   0.6661
V9     V     0.0   0.5   0.5
V10     V     0.5   0.5   0.5
Er11     Er     0.3113   0.1224   0.3339
Er12     Er     0.8112   0.1224   0.3339
loop_
_geom_bond_atom_site_label_1
_geom_bond_atom_site_label_2
_geom_bond_distance
_geom_bond_site_symmetry_2
_ccdc_geom_bond_type
Er1     V10    10.0   .     S
Er1     V9    10.0   .     S
Er1     V4    10.0   1_556     S
Er1     Er5    10.0   1_556     S
Er2     V9    10.0   1_655     S
Er2     V10    10.0   .     S
Er2     V3    10.0   1_656     S
Er2     Er6    10.0   1_556     S
V3     Er5    10.0   1_545     S
V3     Er2    10.0   1_454     S
V3     Er7    10.0   1_544     S
V3     Er8    10.0   1_444     S
V3     Er12    10.0   1_455     S
V3     Er11    10.0   .     S
V4     Er6    10.0   1_545     S
V4     Er1    10.0   1_554     S
V4     Er8    10.0   1_544     S
V4     Er7    10.0   1_544     S
V4     Er11    10.0   .     S
V4     Er12    10.0   .     S
Er5     V3    10.0   1_565     S
Er5     V9    10.0   .     S
Er5     V10    10.0   .     S
Er5     Er1    10.0   1_554     S
Er6     V4    10.0   1_565     S
Er6     V10    10.0   .     S
Er6     V9    10.0   1_655     S
Er6     Er2    10.0   1_554     S
Er7     V3    10.0   1_566     S
Er7     V4    10.0   1_566     S
Er7     V9    10.0   .     S
Er7     Er11    10.0   1_565     S
Er8     V4    10.0   1_566     S
Er8     V3    10.0   1_666     S
Er8     V10    10.0   .     S
Er8     Er12    10.0   1_565     S
V9     Er2    10.0   1_455     S
V9     Er6    10.0   1_455     S
V9     Er12    10.0   1_455     S
V10     Er11    10.0   .     S
Er11     Er7    10.0   1_545     S
Er12     V9    10.0   1_655     S
Er12     V3    10.0   1_655     S
Er12     Er8    10.0   1_545     S
