data_fsm
_audit_creation_date              2019-12-31
_audit_creation_method            'Pymatgen'
_symmetry_space_group_name_H-M    'P1'
_symmetry_Int_Tables_number       1
loop_
_symmetry_equiv_pos_as_xyz
  x,y,z
_cell_length_a                    47.4976
_cell_length_b                    31.1058
_cell_length_c                    40.899
_cell_angle_alpha                 90.0
_cell_angle_beta                 90.0
_cell_angle_gamma                 90.0
loop_
_atom_site_label
_atom_site_type_symbol
_atom_site_fract_x
_atom_site_fract_y
_atom_site_fract_z
V1     V     0.6321   0.375   0.3215
V2     V     0.6321   0.375   0.8215
V3     V     0.6321   0.875   0.3215
V4     V     0.6321   0.875   0.8215
Er5     Er     0.5784   0.125   0.1809
Er6     Er     0.5784   0.125   0.6809
Er7     Er     0.5784   0.625   0.1809
Er8     Er     0.5784   0.625   0.6809
Ti9     Ti     0.6781   0.125   0.4656
Ti10     Ti     0.6781   0.125   0.9656
Ti11     Ti     0.6781   0.625   0.4656
Ti12     Ti     0.6781   0.625   0.9656
V13     V     0.8679   0.125   0.0715
V14     V     0.8679   0.125   0.5715
V15     V     0.8679   0.625   0.0715
V16     V     0.8679   0.625   0.5715
Er17     Er     0.9216   0.375   0.4309
Er18     Er     0.9216   0.375   0.9309
Er19     Er     0.9216   0.875   0.4309
Er20     Er     0.9216   0.875   0.9309
Ti21     Ti     0.8219   0.375   0.2156
Ti22     Ti     0.8219   0.375   0.7156
Ti23     Ti     0.8219   0.875   0.2156
Ti24     Ti     0.8219   0.875   0.7156
V25     V     0.3679   0.125   0.1785
V26     V     0.3679   0.125   0.6785
V27     V     0.3679   0.625   0.1785
V28     V     0.3679   0.625   0.6785
Er29     Er     0.4216   0.375   0.3191
Er30     Er     0.4216   0.375   0.8191
Er31     Er     0.4216   0.875   0.3191
Er32     Er     0.4216   0.875   0.8191
Ti33     Ti     0.3219   0.375   0.0344
Ti34     Ti     0.3219   0.375   0.5344
Ti35     Ti     0.3219   0.875   0.0344
Ti36     Ti     0.3219   0.875   0.5344
V37     V     0.1321   0.375   0.4285
V38     V     0.1321   0.375   0.9285
V39     V     0.1321   0.875   0.4285
V40     V     0.1321   0.875   0.9285
Er41     Er     0.0784   0.125   0.0691
Er42     Er     0.0784   0.125   0.5691
Er43     Er     0.0784   0.625   0.0691
Er44     Er     0.0784   0.625   0.5691
Ti45     Ti     0.1781   0.125   0.2844
Ti46     Ti     0.1781   0.125   0.7844
Ti47     Ti     0.1781   0.625   0.2844
Ti48     Ti     0.1781   0.625   0.7844
loop_
_geom_bond_atom_site_label_1
_geom_bond_atom_site_label_2
_geom_bond_distance
_geom_bond_site_symmetry_2
_ccdc_geom_bond_type
V1     Er29    10.0   .     S
V1     Er5    10.0   .     S
V1     Er7    10.0   .     S
V1     Ti9    10.0   .     S
V1     Ti11    10.0   .     S
V1     Ti21    10.0   .     S
V2     Er30    10.0   .     S
V2     Er6    10.0   .     S
V2     Er8    10.0   .     S
V2     Ti10    10.0   .     S
V2     Ti12    10.0   .     S
V2     Ti22    10.0   .     S
V3     Er31    10.0   .     S
V3     Er7    10.0   .     S
V3     Er5    10.0   1_565     S
V3     Ti11    10.0   .     S
V3     Ti9    10.0   1_565     S
V3     Ti23    10.0   .     S
V4     Er32    10.0   .     S
V4     Er8    10.0   .     S
V4     Er6    10.0   1_565     S
V4     Ti12    10.0   .     S
V4     Ti10    10.0   1_565     S
V4     Ti24    10.0   .     S
Er5     Ti10    10.0   1_554     S
Er5     V3    10.0   1_545     S
Er5     V25    10.0   .     S
Er6     Ti9    10.0   .     S
Er6     V4    10.0   1_545     S
Er6     V26    10.0   .     S
Er7     Ti12    10.0   1_554     S
Er7     V27    10.0   .     S
Er8     Ti11    10.0   .     S
Er8     V28    10.0   .     S
Ti9     V14    10.0   .     S
Ti9     V3    10.0   1_545     S
Ti10     Er5    10.0   1_556     S
Ti10     V13    10.0   1_556     S
Ti10     V4    10.0   1_545     S
Ti11     V16    10.0   .     S
Ti12     Er7    10.0   1_556     S
Ti12     V15    10.0   1_556     S
V13     Ti10    10.0   1_554     S
V13     Er41    10.0   1_655     S
V13     Er18    10.0   1_554     S
V13     Er20    10.0   1_544     S
V13     Ti21    10.0   .     S
V13     Ti23    10.0   1_545     S
V14     Er42    10.0   1_655     S
V14     Er17    10.0   .     S
V14     Er19    10.0   1_545     S
V14     Ti22    10.0   .     S
V14     Ti24    10.0   1_545     S
V15     Ti12    10.0   1_554     S
V15     Er43    10.0   1_655     S
V15     Er20    10.0   1_554     S
V15     Er18    10.0   1_554     S
V15     Ti23    10.0   .     S
V15     Ti21    10.0   .     S
V16     Er44    10.0   1_655     S
V16     Er19    10.0   .     S
V16     Er17    10.0   .     S
V16     Ti24    10.0   .     S
V16     Ti22    10.0   .     S
Er17     Ti21    10.0   .     S
Er17     V37    10.0   1_655     S
Er18     Ti22    10.0   .     S
Er18     V13    10.0   1_556     S
Er18     V15    10.0   1_556     S
Er18     V38    10.0   1_655     S
Er19     Ti23    10.0   .     S
Er19     V14    10.0   1_565     S
Er19     V39    10.0   1_655     S
Er20     Ti24    10.0   .     S
Er20     V15    10.0   1_556     S
Er20     V13    10.0   1_566     S
Er20     V40    10.0   1_655     S
Ti23     V13    10.0   1_565     S
Ti24     V14    10.0   1_565     S
V25     Er29    10.0   .     S
V25     Er31    10.0   1_545     S
V25     Ti35    10.0   1_545     S
V25     Ti33    10.0   .     S
V25     Ti45    10.0   .     S
V26     Er30    10.0   .     S
V26     Er32    10.0   1_545     S
V26     Ti36    10.0   1_545     S
V26     Ti34    10.0   .     S
V26     Ti46    10.0   .     S
V27     Er31    10.0   .     S
V27     Er29    10.0   .     S
V27     Ti33    10.0   .     S
V27     Ti35    10.0   .     S
V27     Ti47    10.0   .     S
V28     Er32    10.0   .     S
V28     Er30    10.0   .     S
V28     Ti34    10.0   .     S
V28     Ti36    10.0   .     S
V28     Ti48    10.0   .     S
Er29     Ti34    10.0   .     S
Er30     Ti33    10.0   1_556     S
Er31     Ti36    10.0   .     S
Er31     V25    10.0   1_565     S
Er32     Ti35    10.0   1_556     S
Er32     V26    10.0   1_565     S
Ti33     Er30    10.0   1_554     S
Ti33     V38    10.0   1_554     S
Ti34     V37    10.0   .     S
Ti35     Er32    10.0   1_554     S
Ti35     V40    10.0   1_554     S
Ti35     V25    10.0   1_565     S
Ti36     V39    10.0   .     S
Ti36     V26    10.0   1_565     S
V37     Er17    10.0   1_455     S
V37     Er44    10.0   .     S
V37     Er42    10.0   .     S
V37     Ti47    10.0   .     S
V37     Ti45    10.0   .     S
V38     Ti33    10.0   1_556     S
V38     Er18    10.0   1_455     S
V38     Er43    10.0   1_556     S
V38     Er41    10.0   1_556     S
V38     Ti48    10.0   .     S
V38     Ti46    10.0   .     S
V39     Er19    10.0   1_455     S
V39     Er42    10.0   1_565     S
V39     Er44    10.0   .     S
V39     Ti45    10.0   1_565     S
V39     Ti47    10.0   .     S
V40     Ti35    10.0   1_556     S
V40     Er20    10.0   1_455     S
V40     Er41    10.0   1_566     S
V40     Er43    10.0   1_556     S
V40     Ti46    10.0   1_565     S
V40     Ti48    10.0   .     S
Er41     V13    10.0   1_455     S
Er41     Ti45    10.0   .     S
Er41     V40    10.0   1_544     S
Er41     V38    10.0   1_554     S
Er42     V14    10.0   1_455     S
Er42     Ti46    10.0   .     S
Er42     V39    10.0   1_545     S
Er43     V15    10.0   1_455     S
Er43     Ti47    10.0   .     S
Er43     V38    10.0   1_554     S
Er43     V40    10.0   1_554     S
Er44     V16    10.0   1_455     S
Er44     Ti48    10.0   .     S
Ti45     V39    10.0   1_545     S
Ti46     V40    10.0   1_545     S
