data_fsm
_audit_creation_date              2019-12-31
_audit_creation_method            'Pymatgen'
_symmetry_space_group_name_H-M    'P1'
_symmetry_Int_Tables_number       1
loop_
_symmetry_equiv_pos_as_xyz
  x,y,z
_cell_length_a                    47.4976
_cell_length_b                    31.1058
_cell_length_c                    20.4495
_cell_angle_alpha                 90.0
_cell_angle_beta                 90.0
_cell_angle_gamma                 90.0
loop_
_atom_site_label
_atom_site_type_symbol
_atom_site_fract_x
_atom_site_fract_y
_atom_site_fract_z
V1     V     0.6321   0.375   0.6429
V2     V     0.6321   0.875   0.6429
Er3     Er     0.5784   0.125   0.3619
Er4     Er     0.5784   0.625   0.3619
Ti5     Ti     0.6781   0.125   0.9312
Ti6     Ti     0.6781   0.625   0.9312
V7     V     0.8679   0.125   0.1429
V8     V     0.8679   0.625   0.1429
Er9     Er     0.9216   0.375   0.8619
Er10     Er     0.9216   0.875   0.8619
Ti11     Ti     0.8219   0.375   0.4312
Ti12     Ti     0.8219   0.875   0.4312
V13     V     0.3679   0.125   0.3571
V14     V     0.3679   0.625   0.3571
Er15     Er     0.4216   0.375   0.6381
Er16     Er     0.4216   0.875   0.6381
Ti17     Ti     0.3219   0.375   0.0688
Ti18     Ti     0.3219   0.875   0.0688
V19     V     0.1321   0.375   0.8571
V20     V     0.1321   0.875   0.8571
Er21     Er     0.0784   0.125   0.1381
Er22     Er     0.0784   0.625   0.1381
Ti23     Ti     0.1781   0.125   0.5688
Ti24     Ti     0.1781   0.625   0.5688
loop_
_geom_bond_atom_site_label_1
_geom_bond_atom_site_label_2
_geom_bond_distance
_geom_bond_site_symmetry_2
_ccdc_geom_bond_type
V1     Er15    10.0   .     S
V1     Er3    10.0   .     S
V1     Er4    10.0   .     S
V1     Ti5    10.0   .     S
V1     Ti6    10.0   .     S
V1     Ti11    10.0   .     S
V2     Er16    10.0   .     S
V2     Er4    10.0   .     S
V2     Er3    10.0   1_565     S
V2     Ti6    10.0   .     S
V2     Ti5    10.0   1_565     S
V2     Ti12    10.0   .     S
Er3     Ti5    10.0   1_554     S
Er3     V2    10.0   1_545     S
Er3     V13    10.0   .     S
Er4     Ti6    10.0   1_554     S
Er4     V14    10.0   .     S
Ti5     Er3    10.0   1_556     S
Ti5     V7    10.0   1_556     S
Ti5     V2    10.0   1_545     S
Ti6     Er4    10.0   1_556     S
Ti6     V8    10.0   1_556     S
V7     Ti5    10.0   1_554     S
V7     Er21    10.0   1_655     S
V7     Er9    10.0   1_554     S
V7     Er10    10.0   1_544     S
V7     Ti11    10.0   .     S
V7     Ti12    10.0   1_545     S
V8     Ti6    10.0   1_554     S
V8     Er22    10.0   1_655     S
V8     Er10    10.0   1_554     S
V8     Er9    10.0   1_554     S
V8     Ti12    10.0   .     S
V8     Ti11    10.0   .     S
Er9     Ti11    10.0   .     S
Er9     V7    10.0   1_556     S
Er9     V8    10.0   1_556     S
Er9     V19    10.0   1_655     S
Er10     Ti12    10.0   .     S
Er10     V8    10.0   1_556     S
Er10     V7    10.0   1_566     S
Er10     V20    10.0   1_655     S
Ti12     V7    10.0   1_565     S
V13     Er15    10.0   .     S
V13     Er16    10.0   1_545     S
V13     Ti18    10.0   1_545     S
V13     Ti17    10.0   .     S
V13     Ti23    10.0   .     S
V14     Er16    10.0   .     S
V14     Er15    10.0   .     S
V14     Ti17    10.0   .     S
V14     Ti18    10.0   .     S
V14     Ti24    10.0   .     S
Er15     Ti17    10.0   1_556     S
Er16     Ti18    10.0   1_556     S
Er16     V13    10.0   1_565     S
Ti17     Er15    10.0   1_554     S
Ti17     V19    10.0   1_554     S
Ti18     Er16    10.0   1_554     S
Ti18     V20    10.0   1_554     S
Ti18     V13    10.0   1_565     S
V19     Ti17    10.0   1_556     S
V19     Er9    10.0   1_455     S
V19     Er22    10.0   1_556     S
V19     Er21    10.0   1_556     S
V19     Ti24    10.0   .     S
V19     Ti23    10.0   .     S
V20     Ti18    10.0   1_556     S
V20     Er10    10.0   1_455     S
V20     Er21    10.0   1_566     S
V20     Er22    10.0   1_556     S
V20     Ti23    10.0   1_565     S
V20     Ti24    10.0   .     S
Er21     V7    10.0   1_455     S
Er21     Ti23    10.0   .     S
Er21     V20    10.0   1_544     S
Er21     V19    10.0   1_554     S
Er22     V8    10.0   1_455     S
Er22     Ti24    10.0   .     S
Er22     V19    10.0   1_554     S
Er22     V20    10.0   1_554     S
Ti23     V20    10.0   1_545     S
