data_fsx
_audit_creation_date              2019-12-31
_audit_creation_method            'Pymatgen'
_symmetry_space_group_name_H-M    'P1'
_symmetry_Int_Tables_number       1
loop_
_symmetry_equiv_pos_as_xyz
  x,y,z
_cell_length_a                    27.6436
_cell_length_b                    27.6436
_cell_length_c                    44.2329
_cell_angle_alpha                 90.0
_cell_angle_beta                 90.0
_cell_angle_gamma                 90.0
loop_
_atom_site_label
_atom_site_type_symbol
_atom_site_fract_x
_atom_site_fract_y
_atom_site_fract_z
Er1     Er     0.25   0.25   0.613
Er2     Er     0.25   0.75   0.613
Er3     Er     0.75   0.25   0.613
Er4     Er     0.75   0.75   0.613
V5     V     0.0   0.0   0.6609
V6     V     0.0   0.5   0.6609
V7     V     0.5   0.0   0.6609
V8     V     0.5   0.5   0.6609
Er9     Er     0.0   0.0   0.887
Er10     Er     0.0   0.5   0.887
Er11     Er     0.5   0.0   0.887
Er12     Er     0.5   0.5   0.887
V13     V     0.25   0.25   0.8391
V14     V     0.25   0.75   0.8391
V15     V     0.75   0.25   0.8391
V16     V     0.75   0.75   0.8391
Er17     Er     0.0   0.0   0.113
Er18     Er     0.0   0.5   0.113
Er19     Er     0.5   0.0   0.113
Er20     Er     0.5   0.5   0.113
V21     V     0.25   0.25   0.1609
V22     V     0.25   0.75   0.1609
V23     V     0.75   0.25   0.1609
V24     V     0.75   0.75   0.1609
V25     V     0.0   0.0   0.3391
V26     V     0.0   0.5   0.3391
V27     V     0.5   0.0   0.3391
V28     V     0.5   0.5   0.3391
Er29     Er     0.25   0.25   0.387
Er30     Er     0.25   0.75   0.387
Er31     Er     0.75   0.25   0.387
Er32     Er     0.75   0.75   0.387
loop_
_geom_bond_atom_site_label_1
_geom_bond_atom_site_label_2
_geom_bond_distance
_geom_bond_site_symmetry_2
_ccdc_geom_bond_type
Er1     V5    10.0   .     S
Er1     V8    10.0   .     S
Er1     V6    10.0   .     S
Er1     V7    10.0   .     S
Er1     V13    10.0   .     S
Er1     Er29    10.0   .     S
Er2     V6    10.0   .     S
Er2     V7    10.0   1_565     S
Er2     V5    10.0   1_565     S
Er2     V8    10.0   .     S
Er2     V14    10.0   .     S
Er2     Er30    10.0   .     S
Er3     V7    10.0   .     S
Er3     V6    10.0   1_655     S
Er3     V8    10.0   .     S
Er3     V5    10.0   1_655     S
Er3     V15    10.0   .     S
Er3     Er31    10.0   .     S
Er4     V8    10.0   .     S
Er4     V5    10.0   1_665     S
Er4     V7    10.0   1_565     S
Er4     V6    10.0   1_655     S
Er4     V16    10.0   .     S
Er4     Er32    10.0   .     S
V5     Er4    10.0   1_445     S
V5     Er2    10.0   1_545     S
V5     Er3    10.0   1_455     S
V5     Er9    10.0   .     S
V6     Er3    10.0   1_455     S
V6     Er4    10.0   1_455     S
V6     Er10    10.0   .     S
V7     Er2    10.0   1_545     S
V7     Er4    10.0   1_545     S
V7     Er11    10.0   .     S
V8     Er12    10.0   .     S
Er9     V16    10.0   1_445     S
Er9     V14    10.0   1_545     S
Er9     V15    10.0   1_455     S
Er9     V13    10.0   .     S
Er9     Er17    10.0   1_556     S
Er10     V15    10.0   1_455     S
Er10     V13    10.0   .     S
Er10     V16    10.0   1_455     S
Er10     V14    10.0   .     S
Er10     Er18    10.0   1_556     S
Er11     V14    10.0   1_545     S
Er11     V16    10.0   1_545     S
Er11     V13    10.0   .     S
Er11     V15    10.0   .     S
Er11     Er19    10.0   1_556     S
Er12     V13    10.0   .     S
Er12     V15    10.0   .     S
Er12     V14    10.0   .     S
Er12     V16    10.0   .     S
Er12     Er20    10.0   1_556     S
V14     Er11    10.0   1_565     S
V14     Er9    10.0   1_565     S
V15     Er10    10.0   1_655     S
V15     Er9    10.0   1_655     S
V16     Er9    10.0   1_665     S
V16     Er11    10.0   1_565     S
V16     Er10    10.0   1_655     S
Er17     V24    10.0   1_445     S
Er17     V23    10.0   1_455     S
Er17     V22    10.0   1_545     S
Er17     V21    10.0   .     S
Er17     V25    10.0   .     S
Er17     Er9    10.0   1_554     S
Er18     V23    10.0   1_455     S
Er18     V24    10.0   1_455     S
Er18     V21    10.0   .     S
Er18     V22    10.0   .     S
Er18     V26    10.0   .     S
Er18     Er10    10.0   1_554     S
Er19     V22    10.0   1_545     S
Er19     V21    10.0   .     S
Er19     V24    10.0   1_545     S
Er19     V23    10.0   .     S
Er19     V27    10.0   .     S
Er19     Er11    10.0   1_554     S
Er20     V21    10.0   .     S
Er20     V22    10.0   .     S
Er20     V23    10.0   .     S
Er20     V24    10.0   .     S
Er20     V28    10.0   .     S
Er20     Er12    10.0   1_554     S
V21     Er29    10.0   .     S
V22     Er19    10.0   1_565     S
V22     Er17    10.0   1_565     S
V22     Er30    10.0   .     S
V23     Er18    10.0   1_655     S
V23     Er17    10.0   1_655     S
V23     Er31    10.0   .     S
V24     Er17    10.0   1_665     S
V24     Er18    10.0   1_655     S
V24     Er19    10.0   1_565     S
V24     Er32    10.0   .     S
V25     Er32    10.0   1_445     S
V25     Er31    10.0   1_455     S
V25     Er30    10.0   1_545     S
V25     Er29    10.0   .     S
V26     Er31    10.0   1_455     S
V26     Er32    10.0   1_455     S
V26     Er29    10.0   .     S
V26     Er30    10.0   .     S
V27     Er30    10.0   1_545     S
V27     Er29    10.0   .     S
V27     Er32    10.0   1_545     S
V27     Er31    10.0   .     S
V28     Er29    10.0   .     S
V28     Er30    10.0   .     S
V28     Er31    10.0   .     S
V28     Er32    10.0   .     S
Er30     V27    10.0   1_565     S
Er30     V25    10.0   1_565     S
Er31     V26    10.0   1_655     S
Er31     V25    10.0   1_655     S
Er32     V25    10.0   1_665     S
Er32     V26    10.0   1_655     S
Er32     V27    10.0   1_565     S
