data_fsy
_audit_creation_date              2019-12-31
_audit_creation_method            'Pymatgen'
_symmetry_space_group_name_H-M    'P1'
_symmetry_Int_Tables_number       1
loop_
_symmetry_equiv_pos_as_xyz
  x,y,z
_cell_length_a                    23.0137
_cell_length_b                    32.7163
_cell_length_c                    32.7166
_cell_angle_alpha                 90.0
_cell_angle_beta                 90.0
_cell_angle_gamma                 90.0
loop_
_atom_site_label
_atom_site_type_symbol
_atom_site_fract_x
_atom_site_fract_y
_atom_site_fract_z
V1     V     0.5   0.5   0.0
V2     V     0.5   0.5   0.5
V3     V     0.0   0.0   0.0
V4     V     0.0   0.0   0.5
Ti5     Ti     0.25   0.25   0.0
Ti6     Ti     0.25   0.25   0.5
Ti7     Ti     0.75   0.25   0.0
Ti8     Ti     0.75   0.25   0.5
Ti9     Ti     0.75   0.75   0.0
Ti10     Ti     0.75   0.75   0.5
Ti11     Ti     0.25   0.75   0.0
Ti12     Ti     0.25   0.75   0.5
Er13     Er     0.0   0.2497   0.25
Er14     Er     0.0   0.2497   0.75
Er15     Er     0.0   0.7503   0.25
Er16     Er     0.0   0.7503   0.75
Er17     Er     0.5   0.7497   0.25
Er18     Er     0.5   0.7497   0.75
Er19     Er     0.5   0.2503   0.25
Er20     Er     0.5   0.2503   0.75
loop_
_geom_bond_atom_site_label_1
_geom_bond_atom_site_label_2
_geom_bond_distance
_geom_bond_site_symmetry_2
_ccdc_geom_bond_type
V1     Ti9    10.0   .     S
V1     Ti11    10.0   .     S
V1     Ti5    10.0   .     S
V1     Ti7    10.0   .     S
V2     Ti10    10.0   .     S
V2     Ti12    10.0   .     S
V2     Ti6    10.0   .     S
V2     Ti8    10.0   .     S
V3     Ti9    10.0   1_445     S
V3     Ti11    10.0   1_545     S
V3     Ti5    10.0   .     S
V3     Ti7    10.0   1_455     S
V4     Ti10    10.0   1_445     S
V4     Ti12    10.0   1_545     S
V4     Ti6    10.0   .     S
V4     Ti8    10.0   1_455     S
Ti5     Er13    10.0   .     S
Ti5     Er14    10.0   1_554     S
Ti5     Er19    10.0   .     S
Ti5     Er20    10.0   1_554     S
Ti6     Er14    10.0   .     S
Ti6     Er13    10.0   .     S
Ti6     Er20    10.0   .     S
Ti6     Er19    10.0   .     S
Ti7     V3    10.0   1_655     S
Ti7     Er14    10.0   1_654     S
Ti7     Er13    10.0   1_655     S
Ti7     Er20    10.0   1_554     S
Ti7     Er19    10.0   .     S
Ti8     V4    10.0   1_655     S
Ti8     Er13    10.0   1_655     S
Ti8     Er14    10.0   1_655     S
Ti8     Er19    10.0   .     S
Ti8     Er20    10.0   .     S
Ti9     V3    10.0   1_665     S
Ti9     Er15    10.0   1_655     S
Ti9     Er16    10.0   1_654     S
Ti9     Er17    10.0   .     S
Ti9     Er18    10.0   1_554     S
Ti10     V4    10.0   1_665     S
Ti10     Er16    10.0   1_655     S
Ti10     Er15    10.0   1_655     S
Ti10     Er18    10.0   .     S
Ti10     Er17    10.0   .     S
Ti11     V3    10.0   1_565     S
Ti11     Er16    10.0   1_554     S
Ti11     Er15    10.0   .     S
Ti11     Er18    10.0   1_554     S
Ti11     Er17    10.0   .     S
Ti12     V4    10.0   1_565     S
Ti12     Er15    10.0   .     S
Ti12     Er16    10.0   .     S
Ti12     Er17    10.0   .     S
Ti12     Er18    10.0   .     S
Er13     Ti8    10.0   1_455     S
Er13     Ti7    10.0   1_455     S
Er14     Ti7    10.0   1_456     S
Er14     Ti5    10.0   1_556     S
Er14     Ti8    10.0   1_455     S
Er15     Ti9    10.0   1_455     S
Er15     Ti10    10.0   1_455     S
Er16     Ti10    10.0   1_455     S
Er16     Ti11    10.0   1_556     S
Er16     Ti9    10.0   1_456     S
Er18     Ti11    10.0   1_556     S
Er18     Ti9    10.0   1_556     S
Er20     Ti7    10.0   1_556     S
Er20     Ti5    10.0   1_556     S
