data_fta
_audit_creation_date              2019-12-31
_audit_creation_method            'Pymatgen'
_symmetry_space_group_name_H-M    'P1'
_symmetry_Int_Tables_number       1
loop_
_symmetry_equiv_pos_as_xyz
  x,y,z
_cell_length_a                    29.9997
_cell_length_b                    30.0
_cell_length_c                    37.3206
_cell_angle_alpha                 90.0
_cell_angle_beta                 90.0
_cell_angle_gamma                 90.0
loop_
_atom_site_label
_atom_site_type_symbol
_atom_site_fract_x
_atom_site_fract_y
_atom_site_fract_z
Er1     Er     0.0   0.1667   0.2321
Er2     Er     0.0   0.5   0.2321
Er3     Er     0.0   0.8333   0.2321
Er4     Er     0.3333   0.1667   0.2321
Er5     Er     0.3333   0.5   0.2321
Er6     Er     0.3333   0.8333   0.2321
Er7     Er     0.6667   0.1667   0.2321
Er8     Er     0.6667   0.5   0.2321
Er9     Er     0.6667   0.8333   0.2321
V10     V     0.0   0.0   0.0
V11     V     0.0   0.3333   0.0
V12     V     0.0   0.6667   0.0
V13     V     0.3333   0.0   0.0
V14     V     0.3333   0.3333   0.0
V15     V     0.3333   0.6667   0.0
V16     V     0.6667   0.0   0.0
V17     V     0.6667   0.3333   0.0
V18     V     0.6667   0.6667   0.0
Er19     Er     0.0   0.0   0.732
Er20     Er     0.0   0.3333   0.732
Er21     Er     0.0   0.6667   0.732
Er22     Er     0.3333   0.0   0.732
Er23     Er     0.3333   0.3333   0.732
Er24     Er     0.3333   0.6667   0.732
Er25     Er     0.6667   0.0   0.732
Er26     Er     0.6667   0.3333   0.732
Er27     Er     0.6667   0.6667   0.732
V28     V     0.0   0.1667   0.5
V29     V     0.0   0.5   0.5
V30     V     0.0   0.8333   0.5
V31     V     0.3333   0.1667   0.5
V32     V     0.3333   0.5   0.5
V33     V     0.3333   0.8333   0.5
V34     V     0.6667   0.1667   0.5
V35     V     0.6667   0.5   0.5
V36     V     0.6667   0.8333   0.5
loop_
_geom_bond_atom_site_label_1
_geom_bond_atom_site_label_2
_geom_bond_distance
_geom_bond_site_symmetry_2
_ccdc_geom_bond_type
Er1     V10    10.0   .     S
Er1     V11    10.0   .     S
Er1     Er4    10.0   .     S
Er1     Er7    10.0   1_455     S
Er1     V28    10.0   .     S
Er2     V11    10.0   .     S
Er2     V12    10.0   .     S
Er2     Er5    10.0   .     S
Er2     Er8    10.0   1_455     S
Er2     V29    10.0   .     S
Er3     V12    10.0   .     S
Er3     V10    10.0   1_565     S
Er3     Er6    10.0   .     S
Er3     Er9    10.0   1_455     S
Er3     V30    10.0   .     S
Er4     V13    10.0   .     S
Er4     V14    10.0   .     S
Er4     Er7    10.0   .     S
Er4     V31    10.0   .     S
Er5     V14    10.0   .     S
Er5     V15    10.0   .     S
Er5     Er8    10.0   .     S
Er5     V32    10.0   .     S
Er6     V15    10.0   .     S
Er6     V13    10.0   1_565     S
Er6     Er9    10.0   .     S
Er6     V33    10.0   .     S
Er7     V16    10.0   .     S
Er7     V17    10.0   .     S
Er7     Er1    10.0   1_655     S
Er7     V34    10.0   .     S
Er8     V17    10.0   .     S
Er8     V18    10.0   .     S
Er8     Er2    10.0   1_655     S
Er8     V35    10.0   .     S
Er9     V18    10.0   .     S
Er9     V16    10.0   1_565     S
Er9     Er3    10.0   1_655     S
Er9     V36    10.0   .     S
V10     Er3    10.0   1_545     S
V10     Er19    10.0   1_554     S
V10     V11    10.0   .     S
V10     V12    10.0   1_545     S
V11     Er20    10.0   1_554     S
V11     V12    10.0   .     S
V12     Er21    10.0   1_554     S
V12     V10    10.0   1_565     S
V13     Er6    10.0   1_545     S
V13     Er22    10.0   1_554     S
V13     V14    10.0   .     S
V13     V15    10.0   1_545     S
V14     Er23    10.0   1_554     S
V14     V15    10.0   .     S
V15     Er24    10.0   1_554     S
V15     V13    10.0   1_565     S
V16     Er9    10.0   1_545     S
V16     Er25    10.0   1_554     S
V16     V17    10.0   .     S
V16     V18    10.0   1_545     S
V17     Er26    10.0   1_554     S
V17     V18    10.0   .     S
V18     Er27    10.0   1_554     S
V18     V16    10.0   1_565     S
Er19     V10    10.0   1_556     S
Er19     V30    10.0   1_545     S
Er19     V28    10.0   .     S
Er19     Er22    10.0   .     S
Er19     Er25    10.0   1_455     S
Er20     V11    10.0   1_556     S
Er20     V28    10.0   .     S
Er20     V29    10.0   .     S
Er20     Er23    10.0   .     S
Er20     Er26    10.0   1_455     S
Er21     V12    10.0   1_556     S
Er21     V29    10.0   .     S
Er21     V30    10.0   .     S
Er21     Er24    10.0   .     S
Er21     Er27    10.0   1_455     S
Er22     V13    10.0   1_556     S
Er22     V33    10.0   1_545     S
Er22     V31    10.0   .     S
Er22     Er25    10.0   .     S
Er23     V14    10.0   1_556     S
Er23     V31    10.0   .     S
Er23     V32    10.0   .     S
Er23     Er26    10.0   .     S
Er24     V15    10.0   1_556     S
Er24     V32    10.0   .     S
Er24     V33    10.0   .     S
Er24     Er27    10.0   .     S
Er25     V16    10.0   1_556     S
Er25     V36    10.0   1_545     S
Er25     V34    10.0   .     S
Er25     Er19    10.0   1_655     S
Er26     V17    10.0   1_556     S
Er26     V34    10.0   .     S
Er26     V35    10.0   .     S
Er26     Er20    10.0   1_655     S
Er27     V18    10.0   1_556     S
Er27     V35    10.0   .     S
Er27     V36    10.0   .     S
Er27     Er21    10.0   1_655     S
V28     V30    10.0   1_545     S
V28     V29    10.0   .     S
V29     V30    10.0   .     S
V30     Er19    10.0   1_565     S
V30     V28    10.0   1_565     S
V31     V33    10.0   1_545     S
V31     V32    10.0   .     S
V32     V33    10.0   .     S
V33     Er22    10.0   1_565     S
V33     V31    10.0   1_565     S
V34     V36    10.0   1_545     S
V34     V35    10.0   .     S
V35     V36    10.0   .     S
V36     Er25    10.0   1_565     S
V36     V34    10.0   1_565     S
