data_gea
_audit_creation_date              2019-12-31
_audit_creation_method            'Pymatgen'
_symmetry_space_group_name_H-M    'P1'
_symmetry_Int_Tables_number       1
loop_
_symmetry_equiv_pos_as_xyz
  x,y,z
_cell_length_a                    36.8202
_cell_length_b                    36.8202
_cell_length_c                    25.7037
_cell_angle_alpha                 90.0
_cell_angle_beta                 90.0
_cell_angle_gamma                 120.0
loop_
_atom_site_label
_atom_site_type_symbol
_atom_site_fract_x
_atom_site_fract_y
_atom_site_fract_z
V1     V     0.3333   0.1667   0.25
V2     V     0.3333   0.6667   0.25
V3     V     0.8333   0.1667   0.25
V4     V     0.8333   0.6667   0.25
Er5     Er     0.2867   0.3934   0.1094
Er6     Er     0.2867   0.8934   0.1094
Er7     Er     0.7867   0.3934   0.1094
Er8     Er     0.7867   0.8934   0.1094
Er9     Er     0.2867   0.3934   0.3906
Er10     Er     0.2867   0.8934   0.3906
Er11     Er     0.7867   0.3934   0.3906
Er12     Er     0.7867   0.8934   0.3906
Er13     Er     0.1066   0.2133   0.1094
Er14     Er     0.1066   0.7133   0.1094
Er15     Er     0.6066   0.2133   0.1094
Er16     Er     0.6066   0.7133   0.1094
Er17     Er     0.1066   0.3934   0.1094
Er18     Er     0.1066   0.8934   0.1094
Er19     Er     0.6066   0.3934   0.1094
Er20     Er     0.6066   0.8934   0.1094
Er21     Er     0.1066   0.3934   0.3906
Er22     Er     0.1066   0.8934   0.3906
Er23     Er     0.6066   0.3934   0.3906
Er24     Er     0.6066   0.8934   0.3906
Er25     Er     0.1066   0.2133   0.3906
Er26     Er     0.1066   0.7133   0.3906
Er27     Er     0.6066   0.2133   0.3906
Er28     Er     0.6066   0.7133   0.3906
V29     V     0.1667   0.3333   0.75
V30     V     0.1667   0.8333   0.75
V31     V     0.6667   0.3333   0.75
V32     V     0.6667   0.8333   0.75
Er33     Er     0.3934   0.2867   0.6094
Er34     Er     0.3934   0.7867   0.6094
Er35     Er     0.8934   0.2867   0.6094
Er36     Er     0.8934   0.7867   0.6094
Er37     Er     0.3934   0.1066   0.6094
Er38     Er     0.3934   0.6066   0.6094
Er39     Er     0.8934   0.1066   0.6094
Er40     Er     0.8934   0.6066   0.6094
Er41     Er     0.2133   0.1066   0.6094
Er42     Er     0.2133   0.6066   0.6094
Er43     Er     0.7133   0.1066   0.6094
Er44     Er     0.7133   0.6066   0.6094
Er45     Er     0.3934   0.2867   0.8906
Er46     Er     0.3934   0.7867   0.8906
Er47     Er     0.8934   0.2867   0.8906
Er48     Er     0.8934   0.7867   0.8906
Er49     Er     0.2133   0.1066   0.8906
Er50     Er     0.2133   0.6066   0.8906
Er51     Er     0.7133   0.1066   0.8906
Er52     Er     0.7133   0.6066   0.8906
Er53     Er     0.3934   0.1066   0.8906
Er54     Er     0.3934   0.6066   0.8906
Er55     Er     0.8934   0.1066   0.8906
Er56     Er     0.8934   0.6066   0.8906
loop_
_geom_bond_atom_site_label_1
_geom_bond_atom_site_label_2
_geom_bond_distance
_geom_bond_site_symmetry_2
_ccdc_geom_bond_type
V1     Er6    10.0   1_545     S
V1     Er18    10.0   1_545     S
V1     Er22    10.0   1_545     S
V1     Er10    10.0   1_545     S
V1     Er13    10.0   .     S
V1     Er5    10.0   .     S
V1     Er9    10.0   .     S
V1     Er25    10.0   .     S
V1     Er45    10.0   1_554     S
V1     Er53    10.0   1_554     S
V1     Er49    10.0   1_554     S
V1     Er37    10.0   .     S
V1     Er33    10.0   .     S
V1     Er41    10.0   .     S
V1     Er27    10.0   .     S
V1     Er23    10.0   .     S
V1     Er19    10.0   .     S
V1     Er15    10.0   .     S
V2     Er5    10.0   .     S
V2     Er17    10.0   .     S
V2     Er21    10.0   .     S
V2     Er9    10.0   .     S
V2     Er14    10.0   .     S
V2     Er6    10.0   .     S
V2     Er10    10.0   .     S
V2     Er26    10.0   .     S
V2     Er46    10.0   1_554     S
V2     Er54    10.0   1_554     S
V2     Er50    10.0   1_554     S
V2     Er38    10.0   .     S
V2     Er34    10.0   .     S
V2     Er42    10.0   .     S
V2     Er28    10.0   .     S
V2     Er24    10.0   .     S
V2     Er20    10.0   .     S
V2     Er16    10.0   .     S
V3     Er8    10.0   1_545     S
V3     Er20    10.0   1_545     S
V3     Er24    10.0   1_545     S
V3     Er12    10.0   1_545     S
V3     Er15    10.0   .     S
V3     Er7    10.0   .     S
V3     Er11    10.0   .     S
V3     Er27    10.0   .     S
V3     Er47    10.0   1_554     S
V3     Er55    10.0   1_554     S
V3     Er51    10.0   1_554     S
V3     Er39    10.0   .     S
V3     Er35    10.0   .     S
V3     Er43    10.0   .     S
V3     Er25    10.0   1_655     S
V3     Er21    10.0   1_655     S
V3     Er17    10.0   1_655     S
V3     Er13    10.0   1_655     S
V4     Er7    10.0   .     S
V4     Er19    10.0   .     S
V4     Er23    10.0   .     S
V4     Er11    10.0   .     S
V4     Er16    10.0   .     S
V4     Er8    10.0   .     S
V4     Er12    10.0   .     S
V4     Er28    10.0   .     S
V4     Er48    10.0   1_554     S
V4     Er56    10.0   1_554     S
V4     Er52    10.0   1_554     S
V4     Er40    10.0   .     S
V4     Er36    10.0   .     S
V4     Er44    10.0   .     S
V4     Er26    10.0   1_655     S
V4     Er22    10.0   1_655     S
V4     Er18    10.0   1_655     S
V4     Er14    10.0   1_655     S
Er5     V29    10.0   1_554     S
Er6     V1    10.0   1_565     S
Er6     V30    10.0   1_554     S
Er7     V31    10.0   1_554     S
Er8     V3    10.0   1_565     S
Er8     V32    10.0   1_554     S
Er9     V29    10.0   .     S
Er10     V1    10.0   1_565     S
Er10     V30    10.0   .     S
Er11     V31    10.0   .     S
Er12     V3    10.0   1_565     S
Er12     V32    10.0   .     S
Er13     V3    10.0   1_455     S
Er13     V29    10.0   1_554     S
Er14     V4    10.0   1_455     S
Er14     V30    10.0   1_554     S
Er15     V31    10.0   1_554     S
Er16     V32    10.0   1_554     S
Er17     V3    10.0   1_455     S
Er17     V29    10.0   1_554     S
Er18     V1    10.0   1_565     S
Er18     V4    10.0   1_455     S
Er18     V30    10.0   1_554     S
Er19     V31    10.0   1_554     S
Er20     V3    10.0   1_565     S
Er20     V32    10.0   1_554     S
Er21     V3    10.0   1_455     S
Er21     V29    10.0   .     S
Er22     V1    10.0   1_565     S
Er22     V4    10.0   1_455     S
Er22     V30    10.0   .     S
Er23     V31    10.0   .     S
Er24     V3    10.0   1_565     S
Er24     V32    10.0   .     S
Er25     V3    10.0   1_455     S
Er25     V29    10.0   .     S
Er26     V4    10.0   1_455     S
Er26     V30    10.0   .     S
Er27     V31    10.0   .     S
Er28     V32    10.0   .     S
V29     Er13    10.0   1_556     S
V29     Er17    10.0   1_556     S
V29     Er5    10.0   1_556     S
V29     Er42    10.0   .     S
V29     Er38    10.0   .     S
V29     Er54    10.0   .     S
V29     Er50    10.0   .     S
V29     Er33    10.0   .     S
V29     Er41    10.0   .     S
V29     Er49    10.0   .     S
V29     Er45    10.0   .     S
V29     Er39    10.0   1_455     S
V29     Er35    10.0   1_455     S
V29     Er47    10.0   1_455     S
V29     Er55    10.0   1_455     S
V30     Er14    10.0   1_556     S
V30     Er18    10.0   1_556     S
V30     Er6    10.0   1_556     S
V30     Er41    10.0   1_565     S
V30     Er37    10.0   1_565     S
V30     Er53    10.0   1_565     S
V30     Er49    10.0   1_565     S
V30     Er34    10.0   .     S
V30     Er42    10.0   .     S
V30     Er50    10.0   .     S
V30     Er46    10.0   .     S
V30     Er40    10.0   1_455     S
V30     Er36    10.0   1_455     S
V30     Er48    10.0   1_455     S
V30     Er56    10.0   1_455     S
V31     Er15    10.0   1_556     S
V31     Er19    10.0   1_556     S
V31     Er7    10.0   1_556     S
V31     Er44    10.0   .     S
V31     Er40    10.0   .     S
V31     Er56    10.0   .     S
V31     Er52    10.0   .     S
V31     Er35    10.0   .     S
V31     Er43    10.0   .     S
V31     Er51    10.0   .     S
V31     Er47    10.0   .     S
V31     Er37    10.0   .     S
V31     Er33    10.0   .     S
V31     Er45    10.0   .     S
V31     Er53    10.0   .     S
V32     Er16    10.0   1_556     S
V32     Er20    10.0   1_556     S
V32     Er8    10.0   1_556     S
V32     Er43    10.0   1_565     S
V32     Er39    10.0   1_565     S
V32     Er55    10.0   1_565     S
V32     Er51    10.0   1_565     S
V32     Er36    10.0   .     S
V32     Er44    10.0   .     S
V32     Er52    10.0   .     S
V32     Er48    10.0   .     S
V32     Er38    10.0   .     S
V32     Er34    10.0   .     S
V32     Er46    10.0   .     S
V32     Er54    10.0   .     S
Er35     V29    10.0   1_655     S
Er36     V30    10.0   1_655     S
Er37     V30    10.0   1_545     S
Er39     V32    10.0   1_545     S
Er39     V29    10.0   1_655     S
Er40     V30    10.0   1_655     S
Er41     V30    10.0   1_545     S
Er43     V32    10.0   1_545     S
Er45     V1    10.0   1_556     S
Er46     V2    10.0   1_556     S
Er47     V3    10.0   1_556     S
Er47     V29    10.0   1_655     S
Er48     V4    10.0   1_556     S
Er48     V30    10.0   1_655     S
Er49     V1    10.0   1_556     S
Er49     V30    10.0   1_545     S
Er50     V2    10.0   1_556     S
Er51     V3    10.0   1_556     S
Er51     V32    10.0   1_545     S
Er52     V4    10.0   1_556     S
Er53     V1    10.0   1_556     S
Er53     V30    10.0   1_545     S
Er54     V2    10.0   1_556     S
Er55     V3    10.0   1_556     S
Er55     V32    10.0   1_545     S
Er55     V29    10.0   1_655     S
Er56     V4    10.0   1_556     S
Er56     V30    10.0   1_655     S
