data_gez
_audit_creation_date              2019-12-31
_audit_creation_method            'Pymatgen'
_symmetry_space_group_name_H-M    'P1'
_symmetry_Int_Tables_number       1
loop_
_symmetry_equiv_pos_as_xyz
  x,y,z
_cell_length_a                    36.8072
_cell_length_b                    36.8072
_cell_length_c                    38.5824
_cell_angle_alpha                 90.0
_cell_angle_beta                 90.0
_cell_angle_gamma                 120.0
loop_
_atom_site_label
_atom_site_type_symbol
_atom_site_fract_x
_atom_site_fract_y
_atom_site_fract_z
V1     V     0.2265   0.2735   0.9062
V2     V     0.2265   0.7735   0.9062
V3     V     0.7265   0.2735   0.9062
V4     V     0.7265   0.7735   0.9062
V5     V     0.2735   0.2265   0.0938
V6     V     0.2735   0.7265   0.0938
V7     V     0.7735   0.2265   0.0938
V8     V     0.7735   0.7265   0.0938
V9     V     0.4531   0.2265   0.0938
V10     V     0.4531   0.7265   0.0938
V11     V     0.9531   0.2265   0.0938
V12     V     0.9531   0.7265   0.0938
V13     V     0.0469   0.2735   0.9062
V14     V     0.0469   0.7735   0.9062
V15     V     0.5469   0.2735   0.9062
V16     V     0.5469   0.7735   0.9062
V17     V     0.2265   0.4531   0.9062
V18     V     0.2265   0.9531   0.9062
V19     V     0.7265   0.4531   0.9062
V20     V     0.7265   0.9531   0.9062
V21     V     0.2735   0.0469   0.0938
V22     V     0.2735   0.5469   0.0938
V23     V     0.7735   0.0469   0.0938
V24     V     0.7735   0.5469   0.0938
Er25     Er     0.0   0.0   0.0
Er26     Er     0.0   0.5   0.0
Er27     Er     0.5   0.0   0.0
Er28     Er     0.5   0.5   0.0
V29     V     0.1068   0.3932   0.4271
V30     V     0.1068   0.8932   0.4271
V31     V     0.6068   0.3932   0.4271
V32     V     0.6068   0.8932   0.4271
V33     V     0.0599   0.4401   0.2396
V34     V     0.0599   0.9401   0.2396
V35     V     0.5599   0.4401   0.2396
V36     V     0.5599   0.9401   0.2396
V37     V     0.2864   0.3932   0.4271
V38     V     0.2864   0.8932   0.4271
V39     V     0.7864   0.3932   0.4271
V40     V     0.7864   0.8932   0.4271
V41     V     0.1068   0.2136   0.4271
V42     V     0.1068   0.7136   0.4271
V43     V     0.6068   0.2136   0.4271
V44     V     0.6068   0.7136   0.4271
V45     V     0.0599   0.1198   0.2396
V46     V     0.0599   0.6198   0.2396
V47     V     0.5599   0.1198   0.2396
V48     V     0.5599   0.6198   0.2396
V49     V     0.3802   0.4401   0.2396
V50     V     0.3802   0.9401   0.2396
V51     V     0.8802   0.4401   0.2396
V52     V     0.8802   0.9401   0.2396
Er53     Er     0.3333   0.1667   0.3333
Er54     Er     0.3333   0.6667   0.3333
Er55     Er     0.8333   0.1667   0.3333
Er56     Er     0.8333   0.6667   0.3333
V57     V     0.3932   0.1068   0.5729
V58     V     0.3932   0.6068   0.5729
V59     V     0.8932   0.1068   0.5729
V60     V     0.8932   0.6068   0.5729
V61     V     0.4401   0.0599   0.7604
V62     V     0.4401   0.5599   0.7604
V63     V     0.9401   0.0599   0.7604
V64     V     0.9401   0.5599   0.7604
V65     V     0.3932   0.2864   0.5729
V66     V     0.3932   0.7864   0.5729
V67     V     0.8932   0.2864   0.5729
V68     V     0.8932   0.7864   0.5729
V69     V     0.2136   0.1068   0.5729
V70     V     0.2136   0.6068   0.5729
V71     V     0.7136   0.1068   0.5729
V72     V     0.7136   0.6068   0.5729
V73     V     0.1198   0.0599   0.7604
V74     V     0.1198   0.5599   0.7604
V75     V     0.6198   0.0599   0.7604
V76     V     0.6198   0.5599   0.7604
V77     V     0.4401   0.3802   0.7604
V78     V     0.4401   0.8802   0.7604
V79     V     0.9401   0.3802   0.7604
V80     V     0.9401   0.8802   0.7604
Er81     Er     0.1667   0.3333   0.6667
Er82     Er     0.1667   0.8333   0.6667
Er83     Er     0.6667   0.3333   0.6667
Er84     Er     0.6667   0.8333   0.6667
loop_
_geom_bond_atom_site_label_1
_geom_bond_atom_site_label_2
_geom_bond_distance
_geom_bond_site_symmetry_2
_ccdc_geom_bond_type
V1     Er25    10.0   1_556     S
V1     Er28    10.0   1_556     S
V1     Er81    10.0   .     S
V2     Er26    10.0   1_556     S
V2     Er27    10.0   1_566     S
V2     Er82    10.0   .     S
V3     Er27    10.0   1_556     S
V3     Er26    10.0   1_656     S
V3     Er83    10.0   .     S
V4     Er28    10.0   1_556     S
V4     Er25    10.0   1_666     S
V4     Er84    10.0   .     S
V5     Er25    10.0   .     S
V5     Er28    10.0   .     S
V5     Er53    10.0   .     S
V6     Er26    10.0   .     S
V6     Er27    10.0   1_565     S
V6     Er54    10.0   .     S
V7     Er27    10.0   .     S
V7     Er26    10.0   1_655     S
V7     Er55    10.0   .     S
V8     Er28    10.0   .     S
V8     Er25    10.0   1_665     S
V8     Er56    10.0   .     S
V9     Er27    10.0   .     S
V9     Er28    10.0   .     S
V9     Er53    10.0   .     S
V10     Er28    10.0   .     S
V10     Er27    10.0   1_565     S
V10     Er54    10.0   .     S
V11     Er25    10.0   1_655     S
V11     Er26    10.0   1_655     S
V11     Er55    10.0   .     S
V12     Er26    10.0   1_655     S
V12     Er25    10.0   1_665     S
V12     Er56    10.0   .     S
V13     Er25    10.0   1_556     S
V13     Er26    10.0   1_556     S
V13     Er81    10.0   .     S
V14     Er26    10.0   1_556     S
V14     Er25    10.0   1_566     S
V14     Er82    10.0   .     S
V15     Er27    10.0   1_556     S
V15     Er28    10.0   1_556     S
V15     Er83    10.0   .     S
V16     Er28    10.0   1_556     S
V16     Er27    10.0   1_566     S
V16     Er84    10.0   .     S
V17     Er28    10.0   1_556     S
V17     Er26    10.0   1_556     S
V17     Er81    10.0   .     S
V18     Er27    10.0   1_566     S
V18     Er25    10.0   1_566     S
V18     Er82    10.0   .     S
V19     Er26    10.0   1_656     S
V19     Er28    10.0   1_556     S
V19     Er83    10.0   .     S
V20     Er25    10.0   1_666     S
V20     Er27    10.0   1_566     S
V20     Er84    10.0   .     S
V21     Er25    10.0   .     S
V21     Er27    10.0   .     S
V21     Er53    10.0   .     S
V22     Er26    10.0   .     S
V22     Er28    10.0   .     S
V22     Er54    10.0   .     S
V23     Er27    10.0   .     S
V23     Er25    10.0   1_655     S
V23     Er55    10.0   .     S
V24     Er28    10.0   .     S
V24     Er26    10.0   1_655     S
V24     Er56    10.0   .     S
Er25     V63    10.0   1_454     S
Er25     V80    10.0   1_444     S
Er25     V73    10.0   1_554     S
Er25     V45    10.0   .     S
Er25     V52    10.0   1_445     S
Er25     V34    10.0   1_545     S
Er25     V1    10.0   1_554     S
Er25     V13    10.0   1_554     S
Er25     V23    10.0   1_455     S
Er25     V11    10.0   1_455     S
Er25     V20    10.0   1_444     S
Er25     V4    10.0   1_444     S
Er25     V14    10.0   1_544     S
Er25     V18    10.0   1_544     S
Er25     V12    10.0   1_445     S
Er25     V8    10.0   1_445     S
Er26     V64    10.0   1_454     S
Er26     V79    10.0   1_454     S
Er26     V74    10.0   1_554     S
Er26     V46    10.0   .     S
Er26     V51    10.0   1_455     S
Er26     V33    10.0   .     S
Er26     V2    10.0   1_554     S
Er26     V14    10.0   1_554     S
Er26     V24    10.0   1_455     S
Er26     V12    10.0   1_455     S
Er26     V19    10.0   1_454     S
Er26     V3    10.0   1_454     S
Er26     V13    10.0   1_554     S
Er26     V17    10.0   1_554     S
Er26     V11    10.0   1_455     S
Er26     V7    10.0   1_455     S
Er27     V61    10.0   1_554     S
Er27     V78    10.0   1_544     S
Er27     V75    10.0   1_554     S
Er27     V47    10.0   .     S
Er27     V50    10.0   1_545     S
Er27     V36    10.0   1_545     S
Er27     V3    10.0   1_554     S
Er27     V15    10.0   1_554     S
Er27     V18    10.0   1_544     S
Er27     V2    10.0   1_544     S
Er27     V16    10.0   1_544     S
Er27     V20    10.0   1_544     S
Er27     V10    10.0   1_545     S
Er27     V6    10.0   1_545     S
Er28     V62    10.0   1_554     S
Er28     V77    10.0   1_554     S
Er28     V76    10.0   1_554     S
Er28     V48    10.0   .     S
Er28     V49    10.0   .     S
Er28     V35    10.0   .     S
Er28     V4    10.0   1_554     S
Er28     V16    10.0   1_554     S
Er28     V17    10.0   1_554     S
Er28     V1    10.0   1_554     S
Er28     V15    10.0   1_554     S
Er28     V19    10.0   1_554     S
V29     Er55    10.0   1_455     S
V29     Er54    10.0   .     S
V29     Er81    10.0   .     S
V30     Er56    10.0   1_455     S
V30     Er53    10.0   1_565     S
V30     Er82    10.0   .     S
V31     Er53    10.0   .     S
V31     Er56    10.0   .     S
V31     Er83    10.0   .     S
V32     Er54    10.0   .     S
V32     Er55    10.0   1_565     S
V32     Er84    10.0   .     S
V33     Er54    10.0   .     S
V33     Er55    10.0   1_455     S
V34     Er25    10.0   1_565     S
V34     Er53    10.0   1_565     S
V34     Er56    10.0   1_455     S
V35     Er56    10.0   .     S
V35     Er53    10.0   .     S
V36     Er27    10.0   1_565     S
V36     Er55    10.0   1_565     S
V36     Er54    10.0   .     S
V37     Er53    10.0   .     S
V37     Er54    10.0   .     S
V37     Er81    10.0   .     S
V38     Er54    10.0   .     S
V38     Er53    10.0   1_565     S
V38     Er82    10.0   .     S
V39     Er55    10.0   .     S
V39     Er56    10.0   .     S
V39     Er83    10.0   .     S
V40     Er56    10.0   .     S
V40     Er55    10.0   1_565     S
V40     Er84    10.0   .     S
V41     Er53    10.0   .     S
V41     Er55    10.0   1_455     S
V41     Er81    10.0   .     S
V42     Er54    10.0   .     S
V42     Er56    10.0   1_455     S
V42     Er82    10.0   .     S
V43     Er55    10.0   .     S
V43     Er53    10.0   .     S
V43     Er83    10.0   .     S
V44     Er56    10.0   .     S
V44     Er54    10.0   .     S
V44     Er84    10.0   .     S
V45     Er53    10.0   .     S
V45     Er55    10.0   1_455     S
V46     Er54    10.0   .     S
V46     Er56    10.0   1_455     S
V47     Er55    10.0   .     S
V47     Er53    10.0   .     S
V48     Er56    10.0   .     S
V48     Er54    10.0   .     S
V49     Er53    10.0   .     S
V49     Er54    10.0   .     S
V50     Er27    10.0   1_565     S
V50     Er54    10.0   .     S
V50     Er53    10.0   1_565     S
V51     Er26    10.0   1_655     S
V51     Er55    10.0   .     S
V51     Er56    10.0   .     S
V52     Er25    10.0   1_665     S
V52     Er56    10.0   .     S
V52     Er55    10.0   1_565     S
Er53     V57    10.0   .     S
Er53     V65    10.0   .     S
Er53     V69    10.0   .     S
Er53     V34    10.0   1_545     S
Er53     V38    10.0   1_545     S
Er53     V30    10.0   1_545     S
Er53     V50    10.0   1_545     S
Er54     V58    10.0   .     S
Er54     V66    10.0   .     S
Er54     V70    10.0   .     S
Er55     V59    10.0   .     S
Er55     V67    10.0   .     S
Er55     V71    10.0   .     S
Er55     V36    10.0   1_545     S
Er55     V29    10.0   1_655     S
Er55     V41    10.0   1_655     S
Er55     V33    10.0   1_655     S
Er55     V40    10.0   1_545     S
Er55     V32    10.0   1_545     S
Er55     V52    10.0   1_545     S
Er55     V45    10.0   1_655     S
Er56     V60    10.0   .     S
Er56     V68    10.0   .     S
Er56     V72    10.0   .     S
Er56     V30    10.0   1_655     S
Er56     V42    10.0   1_655     S
Er56     V34    10.0   1_655     S
Er56     V46    10.0   1_655     S
V57     Er83    10.0   .     S
V57     Er82    10.0   1_545     S
V58     Er84    10.0   .     S
V58     Er81    10.0   .     S
V59     Er81    10.0   1_655     S
V59     Er84    10.0   1_545     S
V60     Er82    10.0   1_655     S
V60     Er83    10.0   .     S
V61     Er27    10.0   1_556     S
V61     Er83    10.0   .     S
V61     Er82    10.0   1_545     S
V62     Er28    10.0   1_556     S
V62     Er84    10.0   .     S
V62     Er81    10.0   .     S
V63     Er25    10.0   1_656     S
V63     Er81    10.0   1_655     S
V63     Er84    10.0   1_545     S
V64     Er26    10.0   1_656     S
V64     Er82    10.0   1_655     S
V64     Er83    10.0   .     S
V65     Er83    10.0   .     S
V65     Er81    10.0   .     S
V66     Er84    10.0   .     S
V66     Er82    10.0   .     S
V67     Er81    10.0   1_655     S
V67     Er83    10.0   .     S
V68     Er82    10.0   1_655     S
V68     Er84    10.0   .     S
V69     Er81    10.0   .     S
V69     Er82    10.0   1_545     S
V70     Er82    10.0   .     S
V70     Er81    10.0   .     S
V71     Er83    10.0   .     S
V71     Er84    10.0   1_545     S
V72     Er84    10.0   .     S
V72     Er83    10.0   .     S
V73     Er25    10.0   1_556     S
V73     Er81    10.0   .     S
V73     Er82    10.0   1_545     S
V74     Er26    10.0   1_556     S
V74     Er82    10.0   .     S
V74     Er81    10.0   .     S
V75     Er27    10.0   1_556     S
V75     Er83    10.0   .     S
V75     Er84    10.0   1_545     S
V76     Er28    10.0   1_556     S
V76     Er84    10.0   .     S
V76     Er83    10.0   .     S
V77     Er28    10.0   1_556     S
V77     Er81    10.0   .     S
V77     Er83    10.0   .     S
V78     Er27    10.0   1_566     S
V78     Er82    10.0   .     S
V78     Er84    10.0   .     S
V79     Er26    10.0   1_656     S
V79     Er83    10.0   .     S
V79     Er81    10.0   1_655     S
V80     Er25    10.0   1_666     S
V80     Er84    10.0   .     S
V80     Er82    10.0   1_655     S
Er81     V67    10.0   1_455     S
Er81     V59    10.0   1_455     S
Er81     V63    10.0   1_455     S
Er81     V79    10.0   1_455     S
Er82     V68    10.0   1_455     S
Er82     V60    10.0   1_455     S
Er82     V64    10.0   1_455     S
Er82     V61    10.0   1_565     S
Er82     V57    10.0   1_565     S
Er82     V69    10.0   1_565     S
Er82     V80    10.0   1_455     S
Er82     V73    10.0   1_565     S
Er84     V63    10.0   1_565     S
Er84     V59    10.0   1_565     S
Er84     V71    10.0   1_565     S
Er84     V75    10.0   1_565     S
