data_gfy
_audit_creation_date              2019-12-31
_audit_creation_method            'Pymatgen'
_symmetry_space_group_name_H-M    'P1'
_symmetry_Int_Tables_number       1
loop_
_symmetry_equiv_pos_as_xyz
  x,y,z
_cell_length_a                    28.8725
_cell_length_b                    28.8725
_cell_length_c                    29.804
_cell_angle_alpha                 90.0
_cell_angle_beta                 90.0
_cell_angle_gamma                 120.0
loop_
_atom_site_label
_atom_site_type_symbol
_atom_site_fract_x
_atom_site_fract_y
_atom_site_fract_z
Er1     Er     0.6667   0.3333   0.375
Er2     Er     0.6667   0.3333   0.875
V3     V     0.9334   0.4667   0.125
V4     V     0.9334   0.4667   0.625
V5     V     0.5333   0.0666   0.125
V6     V     0.5333   0.0666   0.625
V7     V     0.5333   0.4667   0.125
V8     V     0.5333   0.4667   0.625
Er9     Er     0.3333   0.6667   0.125
Er10     Er     0.3333   0.6667   0.625
V11     V     0.4667   0.5333   0.375
V12     V     0.4667   0.5333   0.875
V13     V     0.4667   0.9334   0.375
V14     V     0.4667   0.9334   0.875
V15     V     0.0666   0.5333   0.375
V16     V     0.0666   0.5333   0.875
loop_
_geom_bond_atom_site_label_1
_geom_bond_atom_site_label_2
_geom_bond_distance
_geom_bond_site_symmetry_2
_ccdc_geom_bond_type
Er1     V4    10.0   .     S
Er1     V15    10.0   1_655     S
Er1     V3    10.0   .     S
Er1     V6    10.0   .     S
Er1     V5    10.0   .     S
Er1     V13    10.0   1_545     S
Er1     V8    10.0   .     S
Er1     V11    10.0   .     S
Er1     V7    10.0   .     S
Er2     V3    10.0   1_556     S
Er2     V16    10.0   1_655     S
Er2     V4    10.0   .     S
Er2     V5    10.0   1_556     S
Er2     V6    10.0   .     S
Er2     V14    10.0   1_545     S
Er2     V7    10.0   1_556     S
Er2     V12    10.0   .     S
Er2     V8    10.0   .     S
V3     Er2    10.0   1_554     S
V3     Er9    10.0   1_655     S
V4     Er10    10.0   1_655     S
V5     Er2    10.0   1_554     S
V5     Er9    10.0   1_545     S
V6     Er10    10.0   1_545     S
V7     Er2    10.0   1_554     S
V7     Er9    10.0   .     S
V8     Er10    10.0   .     S
Er9     V14    10.0   1_554     S
Er9     V5    10.0   1_565     S
Er9     V13    10.0   .     S
Er9     V16    10.0   1_554     S
Er9     V15    10.0   .     S
Er9     V3    10.0   1_455     S
Er9     V12    10.0   1_554     S
Er9     V11    10.0   .     S
Er10     V13    10.0   .     S
Er10     V6    10.0   1_565     S
Er10     V14    10.0   .     S
Er10     V15    10.0   .     S
Er10     V16    10.0   .     S
Er10     V4    10.0   1_455     S
Er10     V11    10.0   .     S
Er10     V12    10.0   .     S
V12     Er9    10.0   1_556     S
V13     Er1    10.0   1_565     S
V14     Er2    10.0   1_565     S
V14     Er9    10.0   1_556     S
V15     Er1    10.0   1_455     S
V16     Er2    10.0   1_455     S
V16     Er9    10.0   1_556     S
