data_ghw
_audit_creation_date              2019-12-31
_audit_creation_method            'Pymatgen'
_symmetry_space_group_name_H-M    'P1'
_symmetry_Int_Tables_number       1
loop_
_symmetry_equiv_pos_as_xyz
  x,y,z
_cell_length_a                    39.9404
_cell_length_b                    30.3545
_cell_length_c                    37.818
_cell_angle_alpha                 90.0
_cell_angle_beta                 90.0
_cell_angle_gamma                 90.0
loop_
_atom_site_label
_atom_site_type_symbol
_atom_site_fract_x
_atom_site_fract_y
_atom_site_fract_z
V1     V     0.0625   0.625   0.1803
V2     V     0.0625   0.625   0.6803
V3     V     0.5625   0.625   0.1803
V4     V     0.5625   0.625   0.6803
V5     V     0.0625   0.625   0.4447
V6     V     0.0625   0.625   0.9447
V7     V     0.5625   0.625   0.4447
V8     V     0.5625   0.625   0.9447
V9     V     0.3125   0.625   0.4303
V10     V     0.3125   0.625   0.9303
V11     V     0.8125   0.625   0.4303
V12     V     0.8125   0.625   0.9303
V13     V     0.3125   0.625   0.1947
V14     V     0.3125   0.625   0.6947
V15     V     0.8125   0.625   0.1947
V16     V     0.8125   0.625   0.6947
V17     V     0.1875   0.875   0.0553
V18     V     0.1875   0.875   0.5553
V19     V     0.6875   0.875   0.0553
V20     V     0.6875   0.875   0.5553
V21     V     0.1875   0.875   0.3197
V22     V     0.1875   0.875   0.8197
V23     V     0.6875   0.875   0.3197
V24     V     0.6875   0.875   0.8197
V25     V     0.4375   0.875   0.0697
V26     V     0.4375   0.875   0.5697
V27     V     0.9375   0.875   0.0697
V28     V     0.9375   0.875   0.5697
V29     V     0.4375   0.875   0.3053
V30     V     0.4375   0.875   0.8053
V31     V     0.9375   0.875   0.3053
V32     V     0.9375   0.875   0.8053
V33     V     0.1875   0.375   0.0697
V34     V     0.1875   0.375   0.5697
V35     V     0.6875   0.375   0.0697
V36     V     0.6875   0.375   0.5697
V37     V     0.1875   0.375   0.3053
V38     V     0.1875   0.375   0.8053
V39     V     0.6875   0.375   0.3053
V40     V     0.6875   0.375   0.8053
V41     V     0.4375   0.375   0.0553
V42     V     0.4375   0.375   0.5553
V43     V     0.9375   0.375   0.0553
V44     V     0.9375   0.375   0.5553
V45     V     0.4375   0.375   0.3197
V46     V     0.4375   0.375   0.8197
V47     V     0.9375   0.375   0.3197
V48     V     0.9375   0.375   0.8197
V49     V     0.3125   0.125   0.1803
V50     V     0.3125   0.125   0.6803
V51     V     0.8125   0.125   0.1803
V52     V     0.8125   0.125   0.6803
V53     V     0.3125   0.125   0.4447
V54     V     0.3125   0.125   0.9447
V55     V     0.8125   0.125   0.4447
V56     V     0.8125   0.125   0.9447
V57     V     0.0625   0.125   0.4303
V58     V     0.0625   0.125   0.9303
V59     V     0.5625   0.125   0.4303
V60     V     0.5625   0.125   0.9303
V61     V     0.0625   0.125   0.1947
V62     V     0.0625   0.125   0.6947
V63     V     0.5625   0.125   0.1947
V64     V     0.5625   0.125   0.6947
loop_
_geom_bond_atom_site_label_1
_geom_bond_atom_site_label_2
_geom_bond_distance
_geom_bond_site_symmetry_2
_ccdc_geom_bond_type
V1     V5    10.0   .     S
V1     V15    10.0   1_455     S
V1     V13    10.0   .     S
V1     V27    10.0   1_455     S
V1     V33    10.0   .     S
V2     V6    10.0   .     S
V2     V16    10.0   1_455     S
V2     V14    10.0   .     S
V2     V28    10.0   1_455     S
V2     V34    10.0   .     S
V3     V7    10.0   .     S
V3     V13    10.0   .     S
V3     V15    10.0   .     S
V3     V25    10.0   .     S
V3     V35    10.0   .     S
V4     V8    10.0   .     S
V4     V14    10.0   .     S
V4     V16    10.0   .     S
V4     V26    10.0   .     S
V4     V36    10.0   .     S
V5     V11    10.0   1_455     S
V5     V9    10.0   .     S
V5     V18    10.0   .     S
V5     V44    10.0   1_455     S
V6     V12    10.0   1_455     S
V6     V10    10.0   .     S
V6     V17    10.0   1_556     S
V6     V43    10.0   1_456     S
V7     V9    10.0   .     S
V7     V11    10.0   .     S
V7     V20    10.0   .     S
V7     V42    10.0   .     S
V8     V10    10.0   .     S
V8     V12    10.0   .     S
V8     V19    10.0   1_556     S
V8     V41    10.0   1_556     S
V9     V14    10.0   .     S
V9     V45    10.0   .     S
V9     V21    10.0   .     S
V10     V13    10.0   1_556     S
V10     V46    10.0   .     S
V10     V22    10.0   .     S
V11     V16    10.0   .     S
V11     V5    10.0   1_655     S
V11     V47    10.0   .     S
V11     V23    10.0   .     S
V12     V15    10.0   1_556     S
V12     V6    10.0   1_655     S
V12     V48    10.0   .     S
V12     V24    10.0   .     S
V13     V10    10.0   1_554     S
V13     V29    10.0   .     S
V13     V37    10.0   .     S
V14     V30    10.0   .     S
V14     V38    10.0   .     S
V15     V12    10.0   1_554     S
V15     V1    10.0   1_655     S
V15     V31    10.0   .     S
V15     V39    10.0   .     S
V16     V2    10.0   1_655     S
V16     V32    10.0   .     S
V16     V40    10.0   .     S
V17     V21    10.0   .     S
V17     V25    10.0   .     S
V17     V27    10.0   1_455     S
V17     V6    10.0   1_554     S
V17     V54    10.0   1_564     S
V18     V22    10.0   .     S
V18     V26    10.0   .     S
V18     V28    10.0   1_455     S
V18     V53    10.0   1_565     S
V19     V23    10.0   .     S
V19     V27    10.0   .     S
V19     V25    10.0   .     S
V19     V8    10.0   1_554     S
V19     V56    10.0   1_564     S
V20     V24    10.0   .     S
V20     V28    10.0   .     S
V20     V26    10.0   .     S
V20     V55    10.0   1_565     S
V21     V29    10.0   .     S
V21     V31    10.0   1_455     S
V21     V57    10.0   1_565     S
V22     V30    10.0   .     S
V22     V32    10.0   1_455     S
V22     V58    10.0   1_565     S
V23     V31    10.0   .     S
V23     V29    10.0   .     S
V23     V59    10.0   1_565     S
V24     V32    10.0   .     S
V24     V30    10.0   .     S
V24     V60    10.0   1_565     S
V25     V30    10.0   1_554     S
V25     V49    10.0   1_565     S
V26     V29    10.0   .     S
V26     V50    10.0   1_565     S
V27     V32    10.0   1_554     S
V27     V17    10.0   1_655     S
V27     V51    10.0   1_565     S
V27     V1    10.0   1_655     S
V28     V31    10.0   .     S
V28     V18    10.0   1_655     S
V28     V52    10.0   1_565     S
V28     V2    10.0   1_655     S
V29     V63    10.0   1_565     S
V30     V25    10.0   1_556     S
V30     V64    10.0   1_565     S
V31     V21    10.0   1_655     S
V31     V61    10.0   1_665     S
V32     V27    10.0   1_556     S
V32     V22    10.0   1_655     S
V32     V62    10.0   1_665     S
V33     V38    10.0   1_554     S
V33     V41    10.0   .     S
V33     V43    10.0   1_455     S
V33     V49    10.0   .     S
V34     V37    10.0   .     S
V34     V42    10.0   .     S
V34     V44    10.0   1_455     S
V34     V50    10.0   .     S
V35     V40    10.0   1_554     S
V35     V43    10.0   .     S
V35     V41    10.0   .     S
V35     V51    10.0   .     S
V36     V39    10.0   .     S
V36     V44    10.0   .     S
V36     V42    10.0   .     S
V36     V52    10.0   .     S
V37     V45    10.0   .     S
V37     V47    10.0   1_455     S
V37     V61    10.0   .     S
V38     V33    10.0   1_556     S
V38     V46    10.0   .     S
V38     V48    10.0   1_455     S
V38     V62    10.0   .     S
V39     V47    10.0   .     S
V39     V45    10.0   .     S
V39     V63    10.0   .     S
V40     V35    10.0   1_556     S
V40     V48    10.0   .     S
V40     V46    10.0   .     S
V40     V64    10.0   .     S
V41     V45    10.0   .     S
V41     V8    10.0   1_554     S
V41     V54    10.0   1_554     S
V42     V46    10.0   .     S
V42     V53    10.0   .     S
V43     V47    10.0   .     S
V43     V33    10.0   1_655     S
V43     V6    10.0   1_654     S
V43     V56    10.0   1_554     S
V44     V48    10.0   .     S
V44     V34    10.0   1_655     S
V44     V5    10.0   1_655     S
V44     V55    10.0   .     S
V45     V59    10.0   .     S
V46     V60    10.0   .     S
V47     V37    10.0   1_655     S
V47     V57    10.0   1_655     S
V48     V38    10.0   1_655     S
V48     V58    10.0   1_655     S
V49     V53    10.0   .     S
V49     V63    10.0   .     S
V49     V61    10.0   .     S
V49     V25    10.0   1_545     S
V50     V54    10.0   .     S
V50     V64    10.0   .     S
V50     V62    10.0   .     S
V50     V26    10.0   1_545     S
V51     V55    10.0   .     S
V51     V61    10.0   1_655     S
V51     V63    10.0   .     S
V51     V27    10.0   1_545     S
V52     V56    10.0   .     S
V52     V62    10.0   1_655     S
V52     V64    10.0   .     S
V52     V28    10.0   1_545     S
V53     V59    10.0   .     S
V53     V57    10.0   .     S
V53     V18    10.0   1_545     S
V54     V60    10.0   .     S
V54     V58    10.0   .     S
V54     V41    10.0   1_556     S
V54     V17    10.0   1_546     S
V55     V57    10.0   1_655     S
V55     V59    10.0   .     S
V55     V20    10.0   1_545     S
V56     V58    10.0   1_655     S
V56     V60    10.0   .     S
V56     V43    10.0   1_556     S
V56     V19    10.0   1_546     S
V57     V55    10.0   1_455     S
V57     V62    10.0   .     S
V57     V21    10.0   1_545     S
V57     V47    10.0   1_455     S
V58     V56    10.0   1_455     S
V58     V61    10.0   1_556     S
V58     V22    10.0   1_545     S
V58     V48    10.0   1_455     S
V59     V64    10.0   .     S
V59     V23    10.0   1_545     S
V60     V63    10.0   1_556     S
V60     V24    10.0   1_545     S
V61     V51    10.0   1_455     S
V61     V58    10.0   1_554     S
V61     V31    10.0   1_445     S
V62     V52    10.0   1_455     S
V62     V32    10.0   1_445     S
V63     V60    10.0   1_554     S
V63     V29    10.0   1_545     S
V64     V30    10.0   1_545     S
