data_gpu-x
_audit_creation_date              2019-12-31
_audit_creation_method            'Pymatgen'
_symmetry_space_group_name_H-M    'P1'
_symmetry_Int_Tables_number       1
loop_
_symmetry_equiv_pos_as_xyz
  x,y,z
_cell_length_a                    30.2146
_cell_length_b                    27.3291
_cell_length_c                    36.418
_cell_angle_alpha                 90.0
_cell_angle_beta                 90.0
_cell_angle_gamma                 90.0
loop_
_atom_site_label
_atom_site_type_symbol
_atom_site_fract_x
_atom_site_fract_y
_atom_site_fract_z
V1     V     0.875   0.2917   0.1875
V2     V     0.875   0.2917   0.6875
V3     V     0.875   0.625   0.1875
V4     V     0.875   0.625   0.6875
V5     V     0.875   0.9583   0.1875
V6     V     0.875   0.9583   0.6875
V7     V     0.125   0.0417   0.3125
V8     V     0.125   0.0417   0.8125
V9     V     0.125   0.375   0.3125
V10     V     0.125   0.375   0.8125
V11     V     0.125   0.7083   0.3125
V12     V     0.125   0.7083   0.8125
V13     V     0.875   0.125   0.4375
V14     V     0.875   0.125   0.9375
V15     V     0.875   0.4583   0.4375
V16     V     0.875   0.4583   0.9375
V17     V     0.875   0.7917   0.4375
V18     V     0.875   0.7917   0.9375
V19     V     0.125   0.2083   0.0625
V20     V     0.125   0.2083   0.5625
V21     V     0.125   0.5417   0.0625
V22     V     0.125   0.5417   0.5625
V23     V     0.125   0.875   0.0625
V24     V     0.125   0.875   0.5625
V25     V     0.625   0.2083   0.3125
V26     V     0.625   0.2083   0.8125
V27     V     0.625   0.5417   0.3125
V28     V     0.625   0.5417   0.8125
V29     V     0.625   0.875   0.3125
V30     V     0.625   0.875   0.8125
V31     V     0.375   0.125   0.1875
V32     V     0.375   0.125   0.6875
V33     V     0.375   0.4583   0.1875
V34     V     0.375   0.4583   0.6875
V35     V     0.375   0.7917   0.1875
V36     V     0.375   0.7917   0.6875
V37     V     0.375   0.2917   0.4375
V38     V     0.375   0.2917   0.9375
V39     V     0.375   0.625   0.4375
V40     V     0.375   0.625   0.9375
V41     V     0.375   0.9583   0.4375
V42     V     0.375   0.9583   0.9375
V43     V     0.625   0.0417   0.0625
V44     V     0.625   0.0417   0.5625
V45     V     0.625   0.375   0.0625
V46     V     0.625   0.375   0.5625
V47     V     0.625   0.7083   0.0625
V48     V     0.625   0.7083   0.5625
loop_
_geom_bond_atom_site_label_1
_geom_bond_atom_site_label_2
_geom_bond_distance
_geom_bond_site_symmetry_2
_ccdc_geom_bond_type
V1     V5    9.11   1_545     S
V1     V3    9.11   .     S
V1     V45    9.109   .     S
V1     V19    9.109   1_655     S
V1     V9    9.109   1_655     S
V1     V25    9.109   .     S
V1     V13    10.18   .     S
V1     V14    10.18   1_554     S
V1     V15    10.18   .     S
V1     V16    10.18   1_554     S
V1     V43    11.156   .     S
V1     V21    11.156   1_655     S
V1     V7    11.156   1_655     S
V1     V27    11.156   .     S
V2     V6    9.11   1_545     S
V2     V4    9.11   .     S
V2     V46    9.109   .     S
V2     V20    9.109   1_655     S
V2     V10    9.109   1_655     S
V2     V26    9.109   .     S
V2     V14    10.18   .     S
V2     V13    10.18   .     S
V2     V16    10.18   .     S
V2     V15    10.18   .     S
V2     V44    11.156   .     S
V2     V22    11.156   1_655     S
V2     V8    11.156   1_655     S
V2     V28    11.156   .     S
V3     V5    9.11   .     S
V3     V47    9.109   .     S
V3     V21    9.109   1_655     S
V3     V11    9.109   1_655     S
V3     V27    9.109   .     S
V3     V15    10.18   .     S
V3     V16    10.18   1_554     S
V3     V17    10.18   .     S
V3     V18    10.18   1_554     S
V3     V45    11.156   .     S
V3     V23    11.156   1_655     S
V3     V9    11.156   1_655     S
V3     V29    11.156   .     S
V4     V6    9.11   .     S
V4     V48    9.109   .     S
V4     V22    9.109   1_655     S
V4     V12    9.109   1_655     S
V4     V28    9.109   .     S
V4     V16    10.18   .     S
V4     V15    10.18   .     S
V4     V18    10.18   .     S
V4     V17    10.18   .     S
V4     V46    11.156   .     S
V4     V24    11.156   1_655     S
V4     V10    11.156   1_655     S
V4     V30    11.156   .     S
V5     V1    9.11   1_565     S
V5     V43    9.109   1_565     S
V5     V23    9.109   1_655     S
V5     V7    9.109   1_665     S
V5     V29    9.109   .     S
V5     V17    10.18   .     S
V5     V18    10.18   1_554     S
V5     V13    10.18   1_565     S
V5     V14    10.18   1_564     S
V5     V47    11.156   .     S
V5     V19    11.156   1_665     S
V5     V11    11.156   1_655     S
V5     V25    11.156   1_565     S
V6     V2    9.11   1_565     S
V6     V44    9.109   1_565     S
V6     V24    9.109   1_655     S
V6     V8    9.109   1_665     S
V6     V30    9.109   .     S
V6     V18    10.18   .     S
V6     V17    10.18   .     S
V6     V14    10.18   1_565     S
V6     V13    10.18   1_565     S
V6     V48    11.156   .     S
V6     V20    11.156   1_665     S
V6     V12    11.156   1_655     S
V6     V26    11.156   1_565     S
V7     V9    9.11   .     S
V7     V11    9.11   1_545     S
V7     V41    9.109   1_545     S
V7     V13    9.109   1_455     S
V7     V31    9.109   .     S
V7     V5    9.109   1_445     S
V7     V23    10.18   1_545     S
V7     V19    10.18   .     S
V7     V20    10.18   .     S
V7     V24    10.18   1_545     S
V7     V17    11.156   1_445     S
V7     V35    11.156   1_545     S
V7     V1    11.156   1_455     S
V7     V37    11.156   .     S
V8     V10    9.11   .     S
V8     V12    9.11   1_545     S
V8     V42    9.109   1_545     S
V8     V14    9.109   1_455     S
V8     V32    9.109   .     S
V8     V6    9.109   1_445     S
V8     V24    10.18   1_545     S
V8     V20    10.18   .     S
V8     V19    10.18   1_556     S
V8     V23    10.18   1_546     S
V8     V18    11.156   1_445     S
V8     V36    11.156   1_545     S
V8     V2    11.156   1_455     S
V8     V38    11.156   .     S
V9     V11    9.11   .     S
V9     V37    9.109   .     S
V9     V15    9.109   1_455     S
V9     V33    9.109   .     S
V9     V1    9.109   1_455     S
V9     V19    10.18   .     S
V9     V21    10.18   .     S
V9     V22    10.18   .     S
V9     V20    10.18   .     S
V9     V13    11.156   1_455     S
V9     V31    11.156   .     S
V9     V3    11.156   1_455     S
V9     V39    11.156   .     S
V10     V12    9.11   .     S
V10     V38    9.109   .     S
V10     V16    9.109   1_455     S
V10     V34    9.109   .     S
V10     V2    9.109   1_455     S
V10     V20    10.18   .     S
V10     V22    10.18   .     S
V10     V21    10.18   1_556     S
V10     V19    10.18   1_556     S
V10     V14    11.156   1_455     S
V10     V32    11.156   .     S
V10     V4    11.156   1_455     S
V10     V40    11.156   .     S
V11     V7    9.11   1_565     S
V11     V39    9.109   .     S
V11     V17    9.109   1_455     S
V11     V35    9.109   .     S
V11     V3    9.109   1_455     S
V11     V21    10.18   .     S
V11     V23    10.18   .     S
V11     V24    10.18   .     S
V11     V22    10.18   .     S
V11     V15    11.156   1_455     S
V11     V33    11.156   .     S
V11     V5    11.156   1_455     S
V11     V41    11.156   .     S
V12     V8    9.11   1_565     S
V12     V40    9.109   .     S
V12     V18    9.109   1_455     S
V12     V36    9.109   .     S
V12     V4    9.109   1_455     S
V12     V22    10.18   .     S
V12     V24    10.18   .     S
V12     V23    10.18   1_556     S
V12     V21    10.18   1_556     S
V12     V16    11.156   1_455     S
V12     V34    11.156   .     S
V12     V6    11.156   1_455     S
V12     V42    11.156   .     S
V13     V25    9.109   .     S
V13     V7    9.109   1_655     S
V13     V20    9.109   1_655     S
V13     V44    9.109   .     S
V13     V15    9.11   .     S
V13     V17    9.11   1_545     S
V13     V5    10.18   1_545     S
V13     V6    10.18   1_545     S
V13     V9    11.156   1_655     S
V13     V46    11.156   .     S
V13     V29    11.156   1_545     S
V13     V24    11.156   1_645     S
V14     V26    9.109   .     S
V14     V8    9.109   1_655     S
V14     V19    9.109   1_656     S
V14     V43    9.109   1_556     S
V14     V16    9.11   .     S
V14     V18    9.11   1_545     S
V14     V1    10.18   1_556     S
V14     V6    10.18   1_545     S
V14     V5    10.18   1_546     S
V14     V10    11.156   1_655     S
V14     V45    11.156   1_556     S
V14     V30    11.156   1_545     S
V14     V23    11.156   1_646     S
V15     V27    9.109   .     S
V15     V9    9.109   1_655     S
V15     V22    9.109   1_655     S
V15     V46    9.109   .     S
V15     V17    9.11   .     S
V15     V11    11.156   1_655     S
V15     V48    11.156   .     S
V15     V25    11.156   .     S
V15     V20    11.156   1_655     S
V16     V28    9.109   .     S
V16     V10    9.109   1_655     S
V16     V21    9.109   1_656     S
V16     V45    9.109   1_556     S
V16     V18    9.11   .     S
V16     V3    10.18   1_556     S
V16     V1    10.18   1_556     S
V16     V12    11.156   1_655     S
V16     V47    11.156   1_556     S
V16     V26    11.156   .     S
V16     V19    11.156   1_656     S
V17     V29    9.109   .     S
V17     V11    9.109   1_655     S
V17     V24    9.109   1_655     S
V17     V48    9.109   .     S
V17     V13    9.11   1_565     S
V17     V7    11.156   1_665     S
V17     V44    11.156   1_565     S
V17     V27    11.156   .     S
V17     V22    11.156   1_655     S
V18     V30    9.109   .     S
V18     V12    9.109   1_655     S
V18     V23    9.109   1_656     S
V18     V47    9.109   1_556     S
V18     V14    9.11   1_565     S
V18     V5    10.18   1_556     S
V18     V3    10.18   1_556     S
V18     V8    11.156   1_665     S
V18     V43    11.156   1_566     S
V18     V28    11.156   .     S
V18     V21    11.156   1_656     S
V19     V1    9.109   1_455     S
V19     V38    9.109   1_554     S
V19     V14    9.109   1_454     S
V19     V31    9.109   .     S
V19     V23    9.11   1_545     S
V19     V21    9.11   .     S
V19     V8    10.18   1_554     S
V19     V10    10.18   1_554     S
V19     V5    11.156   1_445     S
V19     V42    11.156   1_544     S
V19     V16    11.156   1_454     S
V19     V33    11.156   .     S
V20     V2    9.109   1_455     S
V20     V37    9.109   .     S
V20     V13    9.109   1_455     S
V20     V32    9.109   .     S
V20     V24    9.11   1_545     S
V20     V22    9.11   .     S
V20     V6    11.156   1_445     S
V20     V41    11.156   1_545     S
V20     V15    11.156   1_455     S
V20     V34    11.156   .     S
V21     V3    9.109   1_455     S
V21     V40    9.109   1_554     S
V21     V16    9.109   1_454     S
V21     V33    9.109   .     S
V21     V23    9.11   .     S
V21     V10    10.18   1_554     S
V21     V12    10.18   1_554     S
V21     V1    11.156   1_455     S
V21     V38    11.156   1_554     S
V21     V18    11.156   1_454     S
V21     V35    11.156   .     S
V22     V4    9.109   1_455     S
V22     V39    9.109   .     S
V22     V15    9.109   1_455     S
V22     V34    9.109   .     S
V22     V24    9.11   .     S
V22     V2    11.156   1_455     S
V22     V37    11.156   .     S
V22     V17    11.156   1_455     S
V22     V36    11.156   .     S
V23     V5    9.109   1_455     S
V23     V42    9.109   1_554     S
V23     V18    9.109   1_454     S
V23     V35    9.109   .     S
V23     V19    9.11   1_565     S
V23     V7    10.18   1_565     S
V23     V12    10.18   1_554     S
V23     V8    10.18   1_564     S
V23     V3    11.156   1_455     S
V23     V40    11.156   1_554     S
V23     V14    11.156   1_464     S
V23     V31    11.156   1_565     S
V24     V6    9.109   1_455     S
V24     V41    9.109   .     S
V24     V17    9.109   1_455     S
V24     V36    9.109   .     S
V24     V20    9.11   1_565     S
V24     V8    10.18   1_565     S
V24     V7    10.18   1_565     S
V24     V4    11.156   1_455     S
V24     V39    11.156   .     S
V24     V13    11.156   1_465     S
V24     V32    11.156   1_565     S
V25     V29    9.11   1_545     S
V25     V27    9.11   .     S
V25     V37    9.109   .     S
V25     V31    9.109   .     S
V25     V45    10.18   .     S
V25     V44    10.18   .     S
V25     V43    10.18   .     S
V25     V46    10.18   .     S
V25     V41    11.156   1_545     S
V25     V5    11.156   1_545     S
V25     V33    11.156   .     S
V26     V30    9.11   1_545     S
V26     V28    9.11   .     S
V26     V38    9.109   .     S
V26     V32    9.109   .     S
V26     V46    10.18   .     S
V26     V43    10.18   1_556     S
V26     V44    10.18   .     S
V26     V45    10.18   1_556     S
V26     V42    11.156   1_545     S
V26     V6    11.156   1_545     S
V26     V34    11.156   .     S
V27     V29    9.11   .     S
V27     V39    9.109   .     S
V27     V33    9.109   .     S
V27     V47    10.18   .     S
V27     V46    10.18   .     S
V27     V45    10.18   .     S
V27     V48    10.18   .     S
V27     V37    11.156   .     S
V27     V35    11.156   .     S
V28     V30    9.11   .     S
V28     V40    9.109   .     S
V28     V34    9.109   .     S
V28     V48    10.18   .     S
V28     V45    10.18   1_556     S
V28     V46    10.18   .     S
V28     V47    10.18   1_556     S
V28     V38    11.156   .     S
V28     V36    11.156   .     S
V29     V25    9.11   1_565     S
V29     V41    9.109   .     S
V29     V35    9.109   .     S
V29     V43    10.18   1_565     S
V29     V48    10.18   .     S
V29     V47    10.18   .     S
V29     V44    10.18   1_565     S
V29     V39    11.156   .     S
V29     V13    11.156   1_565     S
V29     V31    11.156   1_565     S
V30     V26    9.11   1_565     S
V30     V42    9.109   .     S
V30     V36    9.109   .     S
V30     V44    10.18   1_565     S
V30     V47    10.18   1_556     S
V30     V48    10.18   .     S
V30     V43    10.18   1_566     S
V30     V40    11.156   .     S
V30     V14    11.156   1_565     S
V30     V32    11.156   1_565     S
V31     V33    9.11   .     S
V31     V35    9.11   1_545     S
V31     V43    9.109   .     S
V31     V38    10.18   1_554     S
V31     V41    10.18   1_545     S
V31     V37    10.18   .     S
V31     V42    10.18   1_544     S
V31     V45    11.156   .     S
V31     V23    11.156   1_545     S
V31     V29    11.156   1_545     S
V32     V34    9.11   .     S
V32     V36    9.11   1_545     S
V32     V44    9.109   .     S
V32     V37    10.18   .     S
V32     V42    10.18   1_545     S
V32     V38    10.18   .     S
V32     V41    10.18   1_545     S
V32     V46    11.156   .     S
V32     V24    11.156   1_545     S
V32     V30    11.156   1_545     S
V33     V35    9.11   .     S
V33     V45    9.109   .     S
V33     V40    10.18   1_554     S
V33     V37    10.18   .     S
V33     V39    10.18   .     S
V33     V38    10.18   1_554     S
V33     V47    11.156   .     S
V34     V36    9.11   .     S
V34     V46    9.109   .     S
V34     V39    10.18   .     S
V34     V38    10.18   .     S
V34     V40    10.18   .     S
V34     V37    10.18   .     S
V34     V48    11.156   .     S
V35     V31    9.11   1_565     S
V35     V47    9.109   .     S
V35     V42    10.18   1_554     S
V35     V39    10.18   .     S
V35     V41    10.18   .     S
V35     V40    10.18   1_554     S
V35     V43    11.156   1_565     S
V35     V7    11.156   1_565     S
V36     V32    9.11   1_565     S
V36     V48    9.109   .     S
V36     V41    10.18   .     S
V36     V40    10.18   .     S
V36     V42    10.18   .     S
V36     V39    10.18   .     S
V36     V44    11.156   1_565     S
V36     V8    11.156   1_565     S
V37     V41    9.11   1_545     S
V37     V39    9.11   .     S
V37     V46    9.109   .     S
V37     V44    11.156   .     S
V38     V19    9.109   1_556     S
V38     V42    9.11   1_545     S
V38     V40    9.11   .     S
V38     V45    9.109   1_556     S
V38     V31    10.18   1_556     S
V38     V33    10.18   1_556     S
V38     V21    11.156   1_556     S
V38     V43    11.156   1_556     S
V39     V41    9.11   .     S
V39     V48    9.109   .     S
V39     V46    11.156   .     S
V40     V21    9.109   1_556     S
V40     V42    9.11   .     S
V40     V47    9.109   1_556     S
V40     V33    10.18   1_556     S
V40     V35    10.18   1_556     S
V40     V23    11.156   1_556     S
V40     V45    11.156   1_556     S
V41     V7    9.109   1_565     S
V41     V37    9.11   1_565     S
V41     V44    9.109   1_565     S
V41     V31    10.18   1_565     S
V41     V32    10.18   1_565     S
V41     V25    11.156   1_565     S
V41     V20    11.156   1_565     S
V41     V48    11.156   .     S
V42     V8    9.109   1_565     S
V42     V23    9.109   1_556     S
V42     V38    9.11   1_565     S
V42     V43    9.109   1_566     S
V42     V35    10.18   1_556     S
V42     V32    10.18   1_565     S
V42     V31    10.18   1_566     S
V42     V26    11.156   1_565     S
V42     V19    11.156   1_566     S
V42     V47    11.156   1_556     S
V43     V45    9.11   .     S
V43     V47    9.11   1_545     S
V43     V5    9.109   1_545     S
V43     V14    9.109   1_554     S
V43     V42    9.109   1_544     S
V43     V29    10.18   1_545     S
V43     V26    10.18   1_554     S
V43     V30    10.18   1_544     S
V43     V35    11.156   1_545     S
V43     V18    11.156   1_544     S
V43     V38    11.156   1_554     S
V44     V46    9.11   .     S
V44     V48    9.11   1_545     S
V44     V6    9.109   1_545     S
V44     V41    9.109   1_545     S
V44     V30    10.18   1_545     S
V44     V29    10.18   1_545     S
V44     V36    11.156   1_545     S
V44     V17    11.156   1_545     S
V45     V47    9.11   .     S
V45     V16    9.109   1_554     S
V45     V38    9.109   1_554     S
V45     V28    10.18   1_554     S
V45     V26    10.18   1_554     S
V45     V14    11.156   1_554     S
V45     V40    11.156   1_554     S
V46     V48    9.11   .     S
V47     V43    9.11   1_565     S
V47     V18    9.109   1_554     S
V47     V40    9.109   1_554     S
V47     V30    10.18   1_554     S
V47     V28    10.18   1_554     S
V47     V16    11.156   1_554     S
V47     V42    11.156   1_554     S
V48     V44    9.11   1_565     S
