data_gpu
_audit_creation_date              2019-12-31
_audit_creation_method            'Pymatgen'
_symmetry_space_group_name_H-M    'P1'
_symmetry_Int_Tables_number       1
loop_
_symmetry_equiv_pos_as_xyz
  x,y,z
_cell_length_a                    34.6412
_cell_length_b                    30.0
_cell_length_c                    34.6408
_cell_angle_alpha                 90.0
_cell_angle_beta                 90.0
_cell_angle_gamma                 90.0
loop_
_atom_site_label
_atom_site_type_symbol
_atom_site_fract_x
_atom_site_fract_y
_atom_site_fract_z
V1     V     0.625   0.2083   0.3125
V2     V     0.625   0.2083   0.8125
V3     V     0.625   0.5417   0.3125
V4     V     0.625   0.5417   0.8125
V5     V     0.625   0.875   0.3125
V6     V     0.625   0.875   0.8125
V7     V     0.625   0.0417   0.0625
V8     V     0.625   0.0417   0.5625
V9     V     0.625   0.375   0.0625
V10     V     0.625   0.375   0.5625
V11     V     0.625   0.7083   0.0625
V12     V     0.625   0.7083   0.5625
V13     V     0.875   0.125   0.4375
V14     V     0.875   0.125   0.9375
V15     V     0.875   0.4583   0.4375
V16     V     0.875   0.4583   0.9375
V17     V     0.875   0.7917   0.4375
V18     V     0.875   0.7917   0.9375
V19     V     0.875   0.2917   0.1875
V20     V     0.875   0.2917   0.6875
V21     V     0.875   0.625   0.1875
V22     V     0.875   0.625   0.6875
V23     V     0.875   0.9583   0.1875
V24     V     0.875   0.9583   0.6875
V25     V     0.375   0.2917   0.4375
V26     V     0.375   0.2917   0.9375
V27     V     0.375   0.625   0.4375
V28     V     0.375   0.625   0.9375
V29     V     0.375   0.9583   0.4375
V30     V     0.375   0.9583   0.9375
V31     V     0.375   0.125   0.1875
V32     V     0.375   0.125   0.6875
V33     V     0.375   0.4583   0.1875
V34     V     0.375   0.4583   0.6875
V35     V     0.375   0.7917   0.1875
V36     V     0.375   0.7917   0.6875
V37     V     0.125   0.0417   0.3125
V38     V     0.125   0.0417   0.8125
V39     V     0.125   0.375   0.3125
V40     V     0.125   0.375   0.8125
V41     V     0.125   0.7083   0.3125
V42     V     0.125   0.7083   0.8125
V43     V     0.125   0.2083   0.0625
V44     V     0.125   0.2083   0.5625
V45     V     0.125   0.5417   0.0625
V46     V     0.125   0.5417   0.5625
V47     V     0.125   0.875   0.0625
V48     V     0.125   0.875   0.5625
loop_
_geom_bond_atom_site_label_1
_geom_bond_atom_site_label_2
_geom_bond_distance
_geom_bond_site_symmetry_2
_ccdc_geom_bond_type
V1     V25    10.0   .     S
V1     V31    10.0   .     S
V1     V10    10.0   .     S
V1     V5    10.0   1_545     S
V1     V3    10.0   .     S
V1     V8    10.0   .     S
V1     V7    10.0   .     S
V1     V9    10.0   .     S
V1     V19    10.0   .     S
V1     V13    10.0   .     S
V2     V26    10.0   .     S
V2     V32    10.0   .     S
V2     V9    10.0   1_556     S
V2     V6    10.0   1_545     S
V2     V4    10.0   .     S
V2     V7    10.0   1_556     S
V2     V8    10.0   .     S
V2     V10    10.0   .     S
V2     V20    10.0   .     S
V2     V14    10.0   .     S
V3     V27    10.0   .     S
V3     V33    10.0   .     S
V3     V12    10.0   .     S
V3     V5    10.0   .     S
V3     V10    10.0   .     S
V3     V9    10.0   .     S
V3     V11    10.0   .     S
V3     V21    10.0   .     S
V3     V15    10.0   .     S
V4     V28    10.0   .     S
V4     V34    10.0   .     S
V4     V11    10.0   1_556     S
V4     V6    10.0   .     S
V4     V9    10.0   1_556     S
V4     V10    10.0   .     S
V4     V12    10.0   .     S
V4     V22    10.0   .     S
V4     V16    10.0   .     S
V5     V29    10.0   .     S
V5     V35    10.0   .     S
V5     V8    10.0   1_565     S
V5     V1    10.0   1_565     S
V5     V12    10.0   .     S
V5     V11    10.0   .     S
V5     V7    10.0   1_565     S
V5     V23    10.0   .     S
V5     V17    10.0   .     S
V6     V30    10.0   .     S
V6     V36    10.0   .     S
V6     V7    10.0   1_566     S
V6     V2    10.0   1_565     S
V6     V11    10.0   1_556     S
V6     V12    10.0   .     S
V6     V8    10.0   1_565     S
V6     V24    10.0   .     S
V6     V18    10.0   .     S
V7     V30    10.0   1_544     S
V7     V31    10.0   .     S
V7     V6    10.0   1_544     S
V7     V2    10.0   1_554     S
V7     V9    10.0   .     S
V7     V11    10.0   1_545     S
V7     V5    10.0   1_545     S
V7     V23    10.0   1_545     S
V7     V14    10.0   1_554     S
V8     V29    10.0   1_545     S
V8     V32    10.0   .     S
V8     V5    10.0   1_545     S
V8     V10    10.0   .     S
V8     V12    10.0   1_545     S
V8     V6    10.0   1_545     S
V8     V24    10.0   1_545     S
V8     V13    10.0   .     S
V9     V26    10.0   1_554     S
V9     V33    10.0   .     S
V9     V2    10.0   1_554     S
V9     V4    10.0   1_554     S
V9     V11    10.0   .     S
V9     V19    10.0   .     S
V9     V16    10.0   1_554     S
V10     V25    10.0   .     S
V10     V34    10.0   .     S
V10     V12    10.0   .     S
V10     V20    10.0   .     S
V10     V15    10.0   .     S
V11     V28    10.0   1_554     S
V11     V35    10.0   .     S
V11     V4    10.0   1_554     S
V11     V6    10.0   1_554     S
V11     V7    10.0   1_565     S
V11     V21    10.0   .     S
V11     V18    10.0   1_554     S
V12     V27    10.0   .     S
V12     V36    10.0   .     S
V12     V8    10.0   1_565     S
V12     V22    10.0   .     S
V12     V17    10.0   .     S
V13     V23    10.0   1_545     S
V13     V15    10.0   .     S
V13     V17    10.0   1_545     S
V13     V19    10.0   .     S
V13     V20    10.0   .     S
V13     V24    10.0   1_545     S
V13     V37    10.0   1_655     S
V13     V44    10.0   1_655     S
V14     V7    10.0   1_556     S
V14     V24    10.0   1_545     S
V14     V16    10.0   .     S
V14     V18    10.0   1_545     S
V14     V20    10.0   .     S
V14     V19    10.0   1_556     S
V14     V23    10.0   1_546     S
V14     V38    10.0   1_655     S
V14     V43    10.0   1_656     S
V15     V19    10.0   .     S
V15     V17    10.0   .     S
V15     V21    10.0   .     S
V15     V22    10.0   .     S
V15     V20    10.0   .     S
V15     V39    10.0   1_655     S
V15     V46    10.0   1_655     S
V16     V9    10.0   1_556     S
V16     V20    10.0   .     S
V16     V18    10.0   .     S
V16     V22    10.0   .     S
V16     V21    10.0   1_556     S
V16     V19    10.0   1_556     S
V16     V40    10.0   1_655     S
V16     V45    10.0   1_656     S
V17     V21    10.0   .     S
V17     V13    10.0   1_565     S
V17     V23    10.0   .     S
V17     V24    10.0   .     S
V17     V22    10.0   .     S
V17     V41    10.0   1_655     S
V17     V48    10.0   1_655     S
V18     V11    10.0   1_556     S
V18     V22    10.0   .     S
V18     V14    10.0   1_565     S
V18     V24    10.0   .     S
V18     V23    10.0   1_556     S
V18     V21    10.0   1_556     S
V18     V42    10.0   1_655     S
V18     V47    10.0   1_656     S
V19     V14    10.0   1_554     S
V19     V23    10.0   1_545     S
V19     V21    10.0   .     S
V19     V16    10.0   1_554     S
V19     V39    10.0   1_655     S
V19     V43    10.0   1_655     S
V20     V24    10.0   1_545     S
V20     V22    10.0   .     S
V20     V40    10.0   1_655     S
V20     V44    10.0   1_655     S
V21     V16    10.0   1_554     S
V21     V23    10.0   .     S
V21     V18    10.0   1_554     S
V21     V41    10.0   1_655     S
V21     V45    10.0   1_655     S
V22     V24    10.0   .     S
V22     V42    10.0   1_655     S
V22     V46    10.0   1_655     S
V23     V7    10.0   1_565     S
V23     V13    10.0   1_565     S
V23     V18    10.0   1_554     S
V23     V19    10.0   1_565     S
V23     V14    10.0   1_564     S
V23     V37    10.0   1_665     S
V23     V47    10.0   1_655     S
V24     V8    10.0   1_565     S
V24     V14    10.0   1_565     S
V24     V20    10.0   1_565     S
V24     V13    10.0   1_565     S
V24     V38    10.0   1_665     S
V24     V48    10.0   1_655     S
V25     V31    10.0   .     S
V25     V29    10.0   1_545     S
V25     V27    10.0   .     S
V25     V33    10.0   .     S
V25     V34    10.0   .     S
V25     V32    10.0   .     S
V25     V39    10.0   .     S
V25     V44    10.0   .     S
V26     V9    10.0   1_556     S
V26     V32    10.0   .     S
V26     V30    10.0   1_545     S
V26     V28    10.0   .     S
V26     V34    10.0   .     S
V26     V33    10.0   1_556     S
V26     V31    10.0   1_556     S
V26     V40    10.0   .     S
V26     V43    10.0   1_556     S
V27     V33    10.0   .     S
V27     V29    10.0   .     S
V27     V35    10.0   .     S
V27     V36    10.0   .     S
V27     V34    10.0   .     S
V27     V41    10.0   .     S
V27     V46    10.0   .     S
V28     V11    10.0   1_556     S
V28     V34    10.0   .     S
V28     V30    10.0   .     S
V28     V36    10.0   .     S
V28     V35    10.0   1_556     S
V28     V33    10.0   1_556     S
V28     V42    10.0   .     S
V28     V45    10.0   1_556     S
V29     V8    10.0   1_565     S
V29     V35    10.0   .     S
V29     V25    10.0   1_565     S
V29     V31    10.0   1_565     S
V29     V32    10.0   1_565     S
V29     V36    10.0   .     S
V29     V37    10.0   1_565     S
V29     V48    10.0   .     S
V30     V7    10.0   1_566     S
V30     V36    10.0   .     S
V30     V26    10.0   1_565     S
V30     V32    10.0   1_565     S
V30     V31    10.0   1_566     S
V30     V35    10.0   1_556     S
V30     V38    10.0   1_565     S
V30     V47    10.0   1_556     S
V31     V29    10.0   1_545     S
V31     V30    10.0   1_544     S
V31     V33    10.0   .     S
V31     V35    10.0   1_545     S
V31     V26    10.0   1_554     S
V31     V37    10.0   .     S
V31     V43    10.0   .     S
V32     V30    10.0   1_545     S
V32     V29    10.0   1_545     S
V32     V34    10.0   .     S
V32     V36    10.0   1_545     S
V32     V38    10.0   .     S
V32     V44    10.0   .     S
V33     V26    10.0   1_554     S
V33     V35    10.0   .     S
V33     V28    10.0   1_554     S
V33     V39    10.0   .     S
V33     V45    10.0   .     S
V34     V36    10.0   .     S
V34     V40    10.0   .     S
V34     V46    10.0   .     S
V35     V28    10.0   1_554     S
V35     V31    10.0   1_565     S
V35     V30    10.0   1_554     S
V35     V41    10.0   .     S
V35     V47    10.0   .     S
V36     V32    10.0   1_565     S
V36     V42    10.0   .     S
V36     V48    10.0   .     S
V37     V23    10.0   1_445     S
V37     V13    10.0   1_455     S
V37     V29    10.0   1_545     S
V37     V44    10.0   .     S
V37     V39    10.0   .     S
V37     V41    10.0   1_545     S
V37     V48    10.0   1_545     S
V37     V47    10.0   1_545     S
V37     V43    10.0   .     S
V38     V24    10.0   1_445     S
V38     V14    10.0   1_455     S
V38     V30    10.0   1_545     S
V38     V43    10.0   1_556     S
V38     V40    10.0   .     S
V38     V42    10.0   1_545     S
V38     V47    10.0   1_546     S
V38     V48    10.0   1_545     S
V38     V44    10.0   .     S
V39     V19    10.0   1_455     S
V39     V15    10.0   1_455     S
V39     V46    10.0   .     S
V39     V41    10.0   .     S
V39     V44    10.0   .     S
V39     V43    10.0   .     S
V39     V45    10.0   .     S
V40     V20    10.0   1_455     S
V40     V16    10.0   1_455     S
V40     V45    10.0   1_556     S
V40     V42    10.0   .     S
V40     V43    10.0   1_556     S
V40     V44    10.0   .     S
V40     V46    10.0   .     S
V41     V21    10.0   1_455     S
V41     V17    10.0   1_455     S
V41     V48    10.0   .     S
V41     V37    10.0   1_565     S
V41     V46    10.0   .     S
V41     V45    10.0   .     S
V41     V47    10.0   .     S
V42     V22    10.0   1_455     S
V42     V18    10.0   1_455     S
V42     V47    10.0   1_556     S
V42     V38    10.0   1_565     S
V42     V45    10.0   1_556     S
V42     V46    10.0   .     S
V42     V48    10.0   .     S
V43     V19    10.0   1_455     S
V43     V14    10.0   1_454     S
V43     V26    10.0   1_554     S
V43     V38    10.0   1_554     S
V43     V40    10.0   1_554     S
V43     V47    10.0   1_545     S
V43     V45    10.0   .     S
V44     V20    10.0   1_455     S
V44     V13    10.0   1_455     S
V44     V48    10.0   1_545     S
V44     V46    10.0   .     S
V45     V21    10.0   1_455     S
V45     V16    10.0   1_454     S
V45     V28    10.0   1_554     S
V45     V40    10.0   1_554     S
V45     V42    10.0   1_554     S
V45     V47    10.0   .     S
V46     V22    10.0   1_455     S
V46     V15    10.0   1_455     S
V46     V48    10.0   .     S
V47     V23    10.0   1_455     S
V47     V18    10.0   1_454     S
V47     V30    10.0   1_554     S
V47     V42    10.0   1_554     S
V47     V38    10.0   1_564     S
V47     V37    10.0   1_565     S
V47     V43    10.0   1_565     S
V48     V24    10.0   1_455     S
V48     V17    10.0   1_455     S
V48     V37    10.0   1_565     S
V48     V38    10.0   1_565     S
V48     V44    10.0   1_565     S
