data_hbl
_audit_creation_date              2019-12-31
_audit_creation_method            'Pymatgen'
_symmetry_space_group_name_H-M    'P1'
_symmetry_Int_Tables_number       1
loop_
_symmetry_equiv_pos_as_xyz
  x,y,z
_cell_length_a                    45.7703
_cell_length_b                    45.7703
_cell_length_c                    32.5532
_cell_angle_alpha                 90.0
_cell_angle_beta                 90.0
_cell_angle_gamma                 90.0
loop_
_atom_site_label
_atom_site_type_symbol
_atom_site_fract_x
_atom_site_fract_y
_atom_site_fract_z
Er1     Er     0.6092   0.1093   0.25
Er2     Er     0.6092   0.1093   0.75
V3     V     0.7361   0.1092   0.0
V4     V     0.7361   0.1092   0.5
Er5     Er     0.6092   0.8907   0.25
Er6     Er     0.6092   0.8907   0.75
V7     V     0.7361   0.8908   0.0
V8     V     0.7361   0.8908   0.5
Er9     Er     0.3907   0.1093   0.25
Er10     Er     0.3907   0.1093   0.75
V11     V     0.2639   0.1092   0.0
V12     V     0.2639   0.1092   0.5
Er13     Er     0.3907   0.8907   0.25
Er14     Er     0.3907   0.8907   0.75
V15     V     0.2639   0.8908   0.0
V16     V     0.2639   0.8908   0.5
Er17     Er     0.1093   0.6092   0.25
Er18     Er     0.1093   0.6092   0.75
V19     V     0.1092   0.7361   0.0
V20     V     0.1092   0.7361   0.5
Er21     Er     0.8907   0.6092   0.25
Er22     Er     0.8907   0.6092   0.75
V23     V     0.8908   0.7361   0.0
V24     V     0.8908   0.7361   0.5
Er25     Er     0.1093   0.3907   0.25
Er26     Er     0.1093   0.3907   0.75
V27     V     0.1092   0.2639   0.0
V28     V     0.1092   0.2639   0.5
Er29     Er     0.8907   0.3907   0.25
Er30     Er     0.8907   0.3907   0.75
V31     V     0.8908   0.2639   0.0
V32     V     0.8908   0.2639   0.5
loop_
_geom_bond_atom_site_label_1
_geom_bond_atom_site_label_2
_geom_bond_distance
_geom_bond_site_symmetry_2
_ccdc_geom_bond_type
Er1     V3    9.997   .     S
Er1     V4    9.997   .     S
Er1     Er9    10.001   .     S
Er2     V4    9.997   .     S
Er2     V3    9.997   1_556     S
Er2     Er10    10.001   .     S
V3     Er2    9.997   1_554     S
V3     V7    10.001   1_545     S
V3     V31    10.01   .     S
V4     V8    10.001   1_545     S
V4     V32    10.01   .     S
Er5     V8    9.997   .     S
Er5     V7    9.997   .     S
Er5     Er13    10.001   .     S
Er6     V7    9.997   1_556     S
Er6     V8    9.997   .     S
Er6     Er14    10.001   .     S
V7     Er6    9.997   1_554     S
V7     V3    10.001   1_565     S
V7     V23    10.01   .     S
V8     V4    10.001   1_565     S
V8     V24    10.01   .     S
Er9     V12    9.997   .     S
Er9     V11    9.997   .     S
Er10     V11    9.997   1_556     S
Er10     V12    9.997   .     S
V11     Er10    9.997   1_554     S
V11     V15    10.001   1_545     S
V11     V27    10.01   .     S
V12     V16    10.001   1_545     S
V12     V28    10.01   .     S
Er13     V15    9.997   .     S
Er13     V16    9.997   .     S
Er14     V16    9.997   .     S
Er14     V15    9.997   1_556     S
V15     Er14    9.997   1_554     S
V15     V11    10.001   1_565     S
V15     V19    10.01   .     S
V16     V12    10.001   1_565     S
V16     V20    10.01   .     S
Er17     V20    9.997   .     S
Er17     V19    9.997   .     S
Er17     Er25    10.001   .     S
Er18     V19    9.997   1_556     S
Er18     V20    9.997   .     S
Er18     Er26    10.001   .     S
V19     Er18    9.997   1_554     S
V19     V23    10.001   1_455     S
V20     V24    10.001   1_455     S
Er21     V23    9.997   .     S
Er21     V24    9.997   .     S
Er21     Er29    10.001   .     S
Er22     V24    9.997   .     S
Er22     V23    9.997   1_556     S
Er22     Er30    10.001   .     S
V23     Er22    9.997   1_554     S
V23     V19    10.001   1_655     S
V24     V20    10.001   1_655     S
Er25     V27    9.997   .     S
Er25     V28    9.997   .     S
Er26     V28    9.997   .     S
Er26     V27    9.997   1_556     S
V27     Er26    9.997   1_554     S
V27     V31    10.001   1_455     S
V28     V32    10.001   1_455     S
Er29     V32    9.997   .     S
Er29     V31    9.997   .     S
Er30     V31    9.997   1_556     S
Er30     V32    9.997   .     S
V31     Er30    9.997   1_554     S
V31     V27    10.001   1_655     S
V32     V28    10.001   1_655     S
