data_hbm
_audit_creation_date              2019-12-31
_audit_creation_method            'Pymatgen'
_symmetry_space_group_name_H-M    'P1'
_symmetry_Int_Tables_number       1
loop_
_symmetry_equiv_pos_as_xyz
  x,y,z
_cell_length_a                    36.9465
_cell_length_b                    36.9465
_cell_length_c                    30.748
_cell_angle_alpha                 90.0
_cell_angle_beta                 90.0
_cell_angle_gamma                 90.0
loop_
_atom_site_label
_atom_site_type_symbol
_atom_site_fract_x
_atom_site_fract_y
_atom_site_fract_z
Er1     Er     0.3645   0.0   0.25
Er2     Er     0.3645   0.0   0.75
V3     V     0.3646   0.1729   0.0
V4     V     0.3646   0.1729   0.5
V5     V     0.3646   0.8271   0.0
V6     V     0.3646   0.8271   0.5
Er7     Er     0.6355   0.0   0.25
Er8     Er     0.6355   0.0   0.75
V9     V     0.6354   0.1729   0.0
V10     V     0.6354   0.1729   0.5
V11     V     0.6354   0.8271   0.0
V12     V     0.6354   0.8271   0.5
Er13     Er     0.0   0.3645   0.25
Er14     Er     0.0   0.3645   0.75
V15     V     0.1729   0.3646   0.0
V16     V     0.1729   0.3646   0.5
V17     V     0.8271   0.3646   0.0
V18     V     0.8271   0.3646   0.5
Er19     Er     0.0   0.6355   0.25
Er20     Er     0.0   0.6355   0.75
V21     V     0.1729   0.6354   0.0
V22     V     0.1729   0.6354   0.5
V23     V     0.8271   0.6354   0.0
V24     V     0.8271   0.6354   0.5
loop_
_geom_bond_atom_site_label_1
_geom_bond_atom_site_label_2
_geom_bond_distance
_geom_bond_site_symmetry_2
_ccdc_geom_bond_type
Er1     V3    9.995   .     S
Er1     V4    9.995   .     S
Er1     V5    9.995   1_545     S
Er1     V6    9.995   1_545     S
Er2     V4    9.995   .     S
Er2     V3    9.995   1_556     S
Er2     V6    9.995   1_545     S
Er2     V5    9.995   1_546     S
V3     Er2    9.995   1_554     S
V3     V9    10.002   .     S
V3     V15    10.018   .     S
V4     V10    10.002   .     S
V4     V16    10.018   .     S
V5     Er1    9.995   1_565     S
V5     Er2    9.995   1_564     S
V5     V11    10.002   .     S
V5     V21    10.018   .     S
V6     Er2    9.995   1_565     S
V6     Er1    9.995   1_565     S
V6     V12    10.002   .     S
V6     V22    10.018   .     S
Er7     V9    9.995   .     S
Er7     V10    9.995   .     S
Er7     V12    9.995   1_545     S
Er7     V11    9.995   1_545     S
Er8     V10    9.995   .     S
Er8     V9    9.995   1_556     S
Er8     V11    9.995   1_546     S
Er8     V12    9.995   1_545     S
V9     Er8    9.995   1_554     S
V9     V17    10.018   .     S
V10     V18    10.018   .     S
V11     Er8    9.995   1_564     S
V11     Er7    9.995   1_565     S
V11     V23    10.018   .     S
V12     Er7    9.995   1_565     S
V12     Er8    9.995   1_565     S
V12     V24    10.018   .     S
Er13     V15    9.995   .     S
Er13     V16    9.995   .     S
Er13     V18    9.995   1_455     S
Er13     V17    9.995   1_455     S
Er14     V16    9.995   .     S
Er14     V15    9.995   1_556     S
Er14     V17    9.995   1_456     S
Er14     V18    9.995   1_455     S
V15     Er14    9.995   1_554     S
V15     V21    10.002   .     S
V16     V22    10.002   .     S
V17     Er14    9.995   1_654     S
V17     Er13    9.995   1_655     S
V17     V23    10.002   .     S
V18     Er13    9.995   1_655     S
V18     Er14    9.995   1_655     S
V18     V24    10.002   .     S
Er19     V21    9.995   .     S
Er19     V22    9.995   .     S
Er19     V23    9.995   1_455     S
Er19     V24    9.995   1_455     S
Er20     V22    9.995   .     S
Er20     V21    9.995   1_556     S
Er20     V24    9.995   1_455     S
Er20     V23    9.995   1_456     S
V21     Er20    9.995   1_554     S
V23     Er19    9.995   1_655     S
V23     Er20    9.995   1_654     S
V24     Er20    9.995   1_655     S
V24     Er19    9.995   1_655     S
