data_hch
_audit_creation_date              2019-12-31
_audit_creation_method            'Pymatgen'
_symmetry_space_group_name_H-M    'P1'
_symmetry_Int_Tables_number       1
loop_
_symmetry_equiv_pos_as_xyz
  x,y,z
_cell_length_a                    28.2302
_cell_length_b                    36.456
_cell_length_c                    33.4436
_cell_angle_alpha                 90.0
_cell_angle_beta                 90.0
_cell_angle_gamma                 90.0
loop_
_atom_site_label
_atom_site_type_symbol
_atom_site_fract_x
_atom_site_fract_y
_atom_site_fract_z
V1     V     0.6771   0.4005   0.25
V2     V     0.6771   0.9005   0.25
V3     V     0.8229   0.1505   0.25
V4     V     0.8229   0.6505   0.25
V5     V     0.6771   0.0995   0.75
V6     V     0.6771   0.5995   0.75
V7     V     0.8229   0.3495   0.75
V8     V     0.8229   0.8495   0.75
Er9     Er     0.6771   0.25   0.5
Er10     Er     0.6771   0.75   0.5
Er11     Er     0.3229   0.25   0.5
Er12     Er     0.3229   0.75   0.5
Er13     Er     0.6771   0.25   0.0
Er14     Er     0.6771   0.75   0.0
Er15     Er     0.3229   0.25   0.0
Er16     Er     0.3229   0.75   0.0
Er17     Er     0.1771   0.0   0.0
Er18     Er     0.1771   0.5   0.0
Er19     Er     0.8229   0.0   0.0
Er20     Er     0.8229   0.5   0.0
Er21     Er     0.1771   0.0   0.5
Er22     Er     0.1771   0.5   0.5
Er23     Er     0.8229   0.0   0.5
Er24     Er     0.8229   0.5   0.5
V25     V     0.1771   0.1505   0.25
V26     V     0.1771   0.6505   0.25
V27     V     0.3229   0.4005   0.25
V28     V     0.3229   0.9005   0.25
V29     V     0.3229   0.0995   0.75
V30     V     0.3229   0.5995   0.75
V31     V     0.1771   0.3495   0.75
V32     V     0.1771   0.8495   0.75
loop_
_geom_bond_atom_site_label_1
_geom_bond_atom_site_label_2
_geom_bond_distance
_geom_bond_site_symmetry_2
_ccdc_geom_bond_type
V1     Er9    10.0   .     S
V1     Er24    10.0   .     S
V1     V4    10.0   .     S
V1     V3    10.0   .     S
V1     Er13    10.0   .     S
V1     Er20    10.0   .     S
V1     V27    10.0   .     S
V2     Er10    10.0   .     S
V2     Er23    10.0   1_565     S
V2     V3    10.0   1_565     S
V2     V4    10.0   .     S
V2     Er14    10.0   .     S
V2     Er19    10.0   1_565     S
V2     V28    10.0   .     S
V3     Er9    10.0   .     S
V3     Er23    10.0   .     S
V3     V2    10.0   1_545     S
V3     Er13    10.0   .     S
V3     Er19    10.0   .     S
V3     V25    10.0   1_655     S
V4     Er10    10.0   .     S
V4     Er24    10.0   .     S
V4     Er14    10.0   .     S
V4     Er20    10.0   .     S
V4     V26    10.0   1_655     S
V5     Er23    10.0   .     S
V5     Er9    10.0   .     S
V5     V8    10.0   1_545     S
V5     V7    10.0   .     S
V5     Er19    10.0   1_556     S
V5     Er13    10.0   1_556     S
V5     V29    10.0   .     S
V6     Er24    10.0   .     S
V6     Er10    10.0   .     S
V6     V7    10.0   .     S
V6     V8    10.0   .     S
V6     Er20    10.0   1_556     S
V6     Er14    10.0   1_556     S
V6     V30    10.0   .     S
V7     Er24    10.0   .     S
V7     Er9    10.0   .     S
V7     Er20    10.0   1_556     S
V7     Er13    10.0   1_556     S
V7     V31    10.0   1_655     S
V8     Er23    10.0   1_565     S
V8     Er10    10.0   .     S
V8     V5    10.0   1_565     S
V8     Er19    10.0   1_566     S
V8     Er14    10.0   1_556     S
V8     V32    10.0   1_655     S
Er9     Er23    10.0   .     S
Er9     Er24    10.0   .     S
Er9     Er11    10.0   .     S
Er10     Er24    10.0   .     S
Er10     Er23    10.0   1_565     S
Er10     Er12    10.0   .     S
Er11     V25    10.0   .     S
Er11     V27    10.0   .     S
Er11     Er21    10.0   .     S
Er11     V31    10.0   .     S
Er11     V29    10.0   .     S
Er11     Er22    10.0   .     S
Er12     V26    10.0   .     S
Er12     V28    10.0   .     S
Er12     Er22    10.0   .     S
Er12     V32    10.0   .     S
Er12     V30    10.0   .     S
Er12     Er21    10.0   1_565     S
Er13     Er19    10.0   .     S
Er13     V7    10.0   1_554     S
Er13     V5    10.0   1_554     S
Er13     Er20    10.0   .     S
Er13     Er15    10.0   .     S
Er14     Er20    10.0   .     S
Er14     V8    10.0   1_554     S
Er14     V6    10.0   1_554     S
Er14     Er19    10.0   1_565     S
Er14     Er16    10.0   .     S
Er15     V25    10.0   .     S
Er15     V27    10.0   .     S
Er15     Er17    10.0   .     S
Er15     V31    10.0   1_554     S
Er15     V29    10.0   1_554     S
Er15     Er18    10.0   .     S
Er16     V26    10.0   .     S
Er16     V28    10.0   .     S
Er16     Er18    10.0   .     S
Er16     V32    10.0   1_554     S
Er16     V30    10.0   1_554     S
Er16     Er17    10.0   1_565     S
Er17     Er19    10.0   1_455     S
Er17     V25    10.0   .     S
Er17     V28    10.0   1_545     S
Er17     V29    10.0   1_554     S
Er17     V32    10.0   1_544     S
Er17     Er16    10.0   1_545     S
Er18     Er20    10.0   1_455     S
Er18     V26    10.0   .     S
Er18     V27    10.0   .     S
Er18     V30    10.0   1_554     S
Er18     V31    10.0   1_554     S
Er19     V2    10.0   1_545     S
Er19     V5    10.0   1_554     S
Er19     V8    10.0   1_544     S
Er19     Er14    10.0   1_545     S
Er19     Er17    10.0   1_655     S
Er20     V6    10.0   1_554     S
Er20     V7    10.0   1_554     S
Er20     Er18    10.0   1_655     S
Er21     Er23    10.0   1_455     S
Er21     V25    10.0   .     S
Er21     V28    10.0   1_545     S
Er21     V29    10.0   .     S
Er21     V32    10.0   1_545     S
Er21     Er12    10.0   1_545     S
Er22     Er24    10.0   1_455     S
Er22     V26    10.0   .     S
Er22     V27    10.0   .     S
Er22     V30    10.0   .     S
Er22     V31    10.0   .     S
Er23     V2    10.0   1_545     S
Er23     V8    10.0   1_545     S
Er23     Er10    10.0   1_545     S
Er23     Er21    10.0   1_655     S
Er24     Er22    10.0   1_655     S
V25     V28    10.0   1_545     S
V25     V27    10.0   .     S
V25     V3    10.0   1_455     S
V26     V27    10.0   .     S
V26     V28    10.0   .     S
V26     V4    10.0   1_455     S
V28     Er17    10.0   1_565     S
V28     V25    10.0   1_565     S
V28     Er21    10.0   1_565     S
V29     Er17    10.0   1_556     S
V29     Er15    10.0   1_556     S
V29     V32    10.0   1_545     S
V29     V31    10.0   .     S
V30     Er18    10.0   1_556     S
V30     Er16    10.0   1_556     S
V30     V31    10.0   .     S
V30     V32    10.0   .     S
V31     Er18    10.0   1_556     S
V31     Er15    10.0   1_556     S
V31     V7    10.0   1_455     S
V32     Er21    10.0   1_565     S
V32     Er17    10.0   1_566     S
V32     Er16    10.0   1_556     S
V32     V29    10.0   1_565     S
V32     V8    10.0   1_455     S
