data_hci
_audit_creation_date              2019-12-31
_audit_creation_method            'Pymatgen'
_symmetry_space_group_name_H-M    'P1'
_symmetry_Int_Tables_number       1
loop_
_symmetry_equiv_pos_as_xyz
  x,y,z
_cell_length_a                    28.2979
_cell_length_b                    36.3948
_cell_length_c                    50.1283
_cell_angle_alpha                 90.0
_cell_angle_beta                 90.0
_cell_angle_gamma                 90.0
loop_
_atom_site_label
_atom_site_type_symbol
_atom_site_fract_x
_atom_site_fract_y
_atom_site_fract_z
V1     V     0.3233   0.2265   0.75
V2     V     0.3233   0.7265   0.75
V3     V     0.1767   0.4765   0.75
V4     V     0.1767   0.9765   0.75
V5     V     0.6767   0.2265   0.75
V6     V     0.6767   0.7265   0.75
V7     V     0.8233   0.4765   0.75
V8     V     0.8233   0.9765   0.75
Er9     Er     0.6767   0.4245   0.0833
Er10     Er     0.6767   0.9245   0.0833
Er11     Er     0.6767   0.0755   0.9167
Er12     Er     0.6767   0.5755   0.9167
Er13     Er     0.8233   0.1745   0.0833
Er14     Er     0.8233   0.6745   0.0833
Er15     Er     0.8233   0.3255   0.9167
Er16     Er     0.8233   0.8255   0.9167
Er17     Er     0.3233   0.4245   0.0833
Er18     Er     0.3233   0.9245   0.0833
Er19     Er     0.3233   0.0755   0.9167
Er20     Er     0.3233   0.5755   0.9167
Er21     Er     0.1767   0.1745   0.0833
Er22     Er     0.1767   0.6745   0.0833
Er23     Er     0.1767   0.3255   0.9167
Er24     Er     0.1767   0.8255   0.9167
V25     V     0.8233   0.0235   0.25
V26     V     0.8233   0.5235   0.25
V27     V     0.6767   0.2735   0.25
V28     V     0.6767   0.7735   0.25
V29     V     0.1767   0.0235   0.25
V30     V     0.1767   0.5235   0.25
V31     V     0.3233   0.2735   0.25
V32     V     0.3233   0.7735   0.25
Er33     Er     0.3233   0.0755   0.5833
Er34     Er     0.3233   0.5755   0.5833
Er35     Er     0.3233   0.4245   0.4167
Er36     Er     0.3233   0.9245   0.4167
Er37     Er     0.1767   0.3255   0.5833
Er38     Er     0.1767   0.8255   0.5833
Er39     Er     0.1767   0.1745   0.4167
Er40     Er     0.1767   0.6745   0.4167
Er41     Er     0.6767   0.0755   0.5833
Er42     Er     0.6767   0.5755   0.5833
Er43     Er     0.6767   0.4245   0.4167
Er44     Er     0.6767   0.9245   0.4167
Er45     Er     0.8233   0.1745   0.4167
Er46     Er     0.8233   0.6745   0.4167
Er47     Er     0.8233   0.3255   0.5833
Er48     Er     0.8233   0.8255   0.5833
loop_
_geom_bond_atom_site_label_1
_geom_bond_atom_site_label_2
_geom_bond_distance
_geom_bond_site_symmetry_2
_ccdc_geom_bond_type
V1     V4    10.0   1_545     S
V1     Er33    10.0   .     S
V1     Er19    10.0   .     S
V1     V3    10.0   .     S
V1     Er37    10.0   .     S
V1     Er23    10.0   .     S
V1     V5    10.0   .     S
V2     V3    10.0   .     S
V2     Er34    10.0   .     S
V2     Er20    10.0   .     S
V2     V4    10.0   .     S
V2     Er38    10.0   .     S
V2     Er24    10.0   .     S
V2     V6    10.0   .     S
V3     Er20    10.0   .     S
V3     Er34    10.0   .     S
V3     Er23    10.0   .     S
V3     Er37    10.0   .     S
V3     V7    10.0   1_455     S
V4     V1    10.0   1_565     S
V4     Er19    10.0   1_565     S
V4     Er33    10.0   1_565     S
V4     Er24    10.0   .     S
V4     Er38    10.0   .     S
V4     V8    10.0   1_455     S
V5     V8    10.0   1_545     S
V5     Er11    10.0   .     S
V5     Er41    10.0   .     S
V5     V7    10.0   .     S
V5     Er15    10.0   .     S
V5     Er47    10.0   .     S
V6     V7    10.0   .     S
V6     Er12    10.0   .     S
V6     Er42    10.0   .     S
V6     V8    10.0   .     S
V6     Er16    10.0   .     S
V6     Er48    10.0   .     S
V7     Er42    10.0   .     S
V7     Er12    10.0   .     S
V7     Er47    10.0   .     S
V7     Er15    10.0   .     S
V7     V3    10.0   1_655     S
V8     V5    10.0   1_565     S
V8     Er41    10.0   1_565     S
V8     Er11    10.0   1_565     S
V8     Er48    10.0   .     S
V8     Er16    10.0   .     S
V8     V4    10.0   1_655     S
Er9     Er14    10.0   .     S
Er9     Er12    10.0   1_554     S
Er9     Er13    10.0   .     S
Er9     Er15    10.0   1_554     S
Er9     Er17    10.0   .     S
Er9     V26    10.0   .     S
Er9     V27    10.0   .     S
Er10     Er13    10.0   1_565     S
Er10     Er11    10.0   1_564     S
Er10     Er14    10.0   .     S
Er10     Er16    10.0   1_554     S
Er10     Er18    10.0   .     S
Er10     V25    10.0   1_565     S
Er10     V28    10.0   .     S
Er11     V8    10.0   1_545     S
Er11     Er13    10.0   1_556     S
Er11     Er15    10.0   .     S
Er11     Er10    10.0   1_546     S
Er11     Er16    10.0   1_545     S
Er11     Er19    10.0   .     S
Er12     Er14    10.0   1_556     S
Er12     Er16    10.0   .     S
Er12     Er9    10.0   1_556     S
Er12     Er15    10.0   .     S
Er12     Er20    10.0   .     S
Er13     Er10    10.0   1_545     S
Er13     Er11    10.0   1_554     S
Er13     Er15    10.0   1_554     S
Er13     Er21    10.0   1_655     S
Er13     V25    10.0   .     S
Er13     V27    10.0   .     S
Er14     Er12    10.0   1_554     S
Er14     Er16    10.0   1_554     S
Er14     Er22    10.0   1_655     S
Er14     V26    10.0   .     S
Er14     V28    10.0   .     S
Er15     Er13    10.0   1_556     S
Er15     Er9    10.0   1_556     S
Er15     Er23    10.0   1_655     S
Er16     Er14    10.0   1_556     S
Er16     Er10    10.0   1_556     S
Er16     Er11    10.0   1_565     S
Er16     Er24    10.0   1_655     S
Er17     Er22    10.0   .     S
Er17     Er20    10.0   1_554     S
Er17     Er21    10.0   .     S
Er17     Er23    10.0   1_554     S
Er17     V30    10.0   .     S
Er17     V31    10.0   .     S
Er18     Er21    10.0   1_565     S
Er18     Er19    10.0   1_564     S
Er18     Er22    10.0   .     S
Er18     Er24    10.0   1_554     S
Er18     V29    10.0   1_565     S
Er18     V32    10.0   .     S
Er19     V4    10.0   1_545     S
Er19     Er21    10.0   1_556     S
Er19     Er23    10.0   .     S
Er19     Er18    10.0   1_546     S
Er19     Er24    10.0   1_545     S
Er20     Er22    10.0   1_556     S
Er20     Er24    10.0   .     S
Er20     Er17    10.0   1_556     S
Er20     Er23    10.0   .     S
Er21     Er18    10.0   1_545     S
Er21     Er19    10.0   1_554     S
Er21     Er23    10.0   1_554     S
Er21     Er13    10.0   1_455     S
Er21     V29    10.0   .     S
Er21     V31    10.0   .     S
Er22     Er20    10.0   1_554     S
Er22     Er24    10.0   1_554     S
Er22     Er14    10.0   1_455     S
Er22     V30    10.0   .     S
Er22     V32    10.0   .     S
Er23     Er21    10.0   1_556     S
Er23     Er17    10.0   1_556     S
Er23     Er15    10.0   1_455     S
Er24     Er22    10.0   1_556     S
Er24     Er18    10.0   1_556     S
Er24     Er19    10.0   1_565     S
Er24     Er16    10.0   1_455     S
V25     Er45    10.0   .     S
V25     V28    10.0   1_545     S
V25     Er10    10.0   1_545     S
V25     Er44    10.0   1_545     S
V25     V27    10.0   .     S
V25     V29    10.0   1_655     S
V26     Er46    10.0   .     S
V26     V27    10.0   .     S
V26     Er43    10.0   .     S
V26     V28    10.0   .     S
V26     V30    10.0   1_655     S
V27     Er45    10.0   .     S
V27     Er43    10.0   .     S
V27     V31    10.0   .     S
V28     V25    10.0   1_565     S
V28     Er46    10.0   .     S
V28     Er44    10.0   .     S
V28     V32    10.0   .     S
V29     Er39    10.0   .     S
V29     V32    10.0   1_545     S
V29     Er18    10.0   1_545     S
V29     Er36    10.0   1_545     S
V29     V31    10.0   .     S
V29     V25    10.0   1_455     S
V30     Er40    10.0   .     S
V30     V31    10.0   .     S
V30     Er35    10.0   .     S
V30     V32    10.0   .     S
V30     V26    10.0   1_455     S
V31     Er39    10.0   .     S
V31     Er35    10.0   .     S
V32     V29    10.0   1_565     S
V32     Er40    10.0   .     S
V32     Er36    10.0   .     S
Er33     V4    10.0   1_545     S
Er33     Er38    10.0   1_545     S
Er33     Er36    10.0   1_545     S
Er33     Er37    10.0   .     S
Er33     Er39    10.0   .     S
Er33     Er41    10.0   .     S
Er34     Er37    10.0   .     S
Er34     Er35    10.0   .     S
Er34     Er38    10.0   .     S
Er34     Er40    10.0   .     S
Er34     Er42    10.0   .     S
Er35     Er39    10.0   .     S
Er35     Er37    10.0   .     S
Er35     Er40    10.0   .     S
Er35     Er43    10.0   .     S
Er36     V29    10.0   1_565     S
Er36     Er40    10.0   .     S
Er36     Er38    10.0   .     S
Er36     Er33    10.0   1_565     S
Er36     Er39    10.0   1_565     S
Er36     Er44    10.0   .     S
Er37     Er39    10.0   .     S
Er37     Er47    10.0   1_455     S
Er38     Er33    10.0   1_565     S
Er38     Er40    10.0   .     S
Er38     Er48    10.0   1_455     S
Er39     Er36    10.0   1_545     S
Er39     Er45    10.0   1_455     S
Er40     Er46    10.0   1_455     S
Er41     V8    10.0   1_545     S
Er41     Er48    10.0   1_545     S
Er41     Er44    10.0   1_545     S
Er41     Er47    10.0   .     S
Er41     Er45    10.0   .     S
Er42     Er47    10.0   .     S
Er42     Er43    10.0   .     S
Er42     Er48    10.0   .     S
Er42     Er46    10.0   .     S
Er43     Er45    10.0   .     S
Er43     Er47    10.0   .     S
Er43     Er46    10.0   .     S
Er44     V25    10.0   1_565     S
Er44     Er46    10.0   .     S
Er44     Er48    10.0   .     S
Er44     Er41    10.0   1_565     S
Er44     Er45    10.0   1_565     S
Er45     Er47    10.0   .     S
Er45     Er44    10.0   1_545     S
Er45     Er39    10.0   1_655     S
Er46     Er48    10.0   .     S
Er46     Er40    10.0   1_655     S
Er47     Er37    10.0   1_655     S
Er48     Er41    10.0   1_565     S
Er48     Er38    10.0   1_655     S
