data_hck
_audit_creation_date              2019-12-31
_audit_creation_method            'Pymatgen'
_symmetry_space_group_name_H-M    'P1'
_symmetry_Int_Tables_number       1
loop_
_symmetry_equiv_pos_as_xyz
  x,y,z
_cell_length_a                    36.642
_cell_length_b                    28.0213
_cell_length_c                    34.3241
_cell_angle_alpha                 90.0
_cell_angle_beta                 102.4579
_cell_angle_gamma                 90.0
loop_
_atom_site_label
_atom_site_type_symbol
_atom_site_fract_x
_atom_site_fract_y
_atom_site_fract_z
Er1     Er     0.0997   0.3216   0.625
Er2     Er     0.5997   0.3216   0.625
Er3     Er     0.0997   0.6784   0.625
Er4     Er     0.5997   0.6784   0.625
Er5     Er     0.4003   0.3216   0.375
Er6     Er     0.9003   0.3216   0.375
Er7     Er     0.4003   0.6784   0.375
Er8     Er     0.9003   0.6784   0.375
V9     V     0.2008   0.6784   0.125
V10     V     0.7008   0.6784   0.125
V11     V     0.0492   0.8216   0.875
V12     V     0.5492   0.8216   0.875
V13     V     0.2992   0.6784   0.875
V14     V     0.7992   0.6784   0.875
V15     V     0.4508   0.8216   0.125
V16     V     0.9508   0.8216   0.125
V17     V     0.2992   0.3216   0.875
V18     V     0.7992   0.3216   0.875
V19     V     0.4508   0.1784   0.125
V20     V     0.9508   0.1784   0.125
V21     V     0.0492   0.1784   0.875
V22     V     0.5492   0.1784   0.875
V23     V     0.2008   0.3216   0.125
V24     V     0.7008   0.3216   0.125
Er25     Er     0.3497   0.8216   0.625
Er26     Er     0.8497   0.8216   0.625
Er27     Er     0.3497   0.1784   0.625
Er28     Er     0.8497   0.1784   0.625
Er29     Er     0.1503   0.8216   0.375
Er30     Er     0.6503   0.8216   0.375
Er31     Er     0.1503   0.1784   0.375
Er32     Er     0.6503   0.1784   0.375
loop_
_geom_bond_atom_site_label_1
_geom_bond_atom_site_label_2
_geom_bond_distance
_geom_bond_site_symmetry_2
_ccdc_geom_bond_type
Er1     Er3    10.0   .     S
Er1     Er6    10.0   1_455     S
Er1     Er28    10.0   1_455     S
Er1     V21    10.0   .     S
Er1     V17    10.0   .     S
Er1     Er27    10.0   .     S
Er1     Er31    10.0   .     S
Er2     Er4    10.0   .     S
Er2     Er5    10.0   .     S
Er2     Er27    10.0   .     S
Er2     V22    10.0   .     S
Er2     V18    10.0   .     S
Er2     Er28    10.0   .     S
Er2     Er32    10.0   .     S
Er3     Er8    10.0   1_455     S
Er3     V11    10.0   .     S
Er3     V13    10.0   .     S
Er3     Er25    10.0   .     S
Er3     Er26    10.0   1_455     S
Er3     Er29    10.0   .     S
Er4     Er7    10.0   .     S
Er4     V12    10.0   .     S
Er4     V14    10.0   .     S
Er4     Er26    10.0   .     S
Er4     Er25    10.0   .     S
Er4     Er30    10.0   .     S
Er5     Er7    10.0   .     S
Er5     V19    10.0   .     S
Er5     Er32    10.0   .     S
Er5     V23    10.0   .     S
Er5     Er31    10.0   .     S
Er5     Er27    10.0   .     S
Er6     Er8    10.0   .     S
Er6     Er1    10.0   1_655     S
Er6     V20    10.0   .     S
Er6     Er31    10.0   1_655     S
Er6     V24    10.0   .     S
Er6     Er32    10.0   .     S
Er6     Er28    10.0   .     S
Er7     V9    10.0   .     S
Er7     Er29    10.0   .     S
Er7     Er30    10.0   .     S
Er7     V15    10.0   .     S
Er7     Er25    10.0   .     S
Er8     Er3    10.0   1_655     S
Er8     V10    10.0   .     S
Er8     Er30    10.0   .     S
Er8     Er29    10.0   1_655     S
Er8     V16    10.0   .     S
Er8     Er26    10.0   .     S
V9     Er29    10.0   .     S
V9     V11    10.0   1_554     S
V9     V15    10.0   .     S
V9     V13    10.0   1_554     S
V9     V16    10.0   1_455     S
V9     V23    10.0   .     S
V10     Er30    10.0   .     S
V10     V12    10.0   1_554     S
V10     V16    10.0   .     S
V10     V14    10.0   1_554     S
V10     V15    10.0   .     S
V10     V24    10.0   .     S
V11     V9    10.0   1_556     S
V11     V13    10.0   .     S
V11     Er26    10.0   1_455     S
V11     V14    10.0   1_455     S
V11     V16    10.0   1_456     S
V11     V21    10.0   1_565     S
V12     V10    10.0   1_556     S
V12     V14    10.0   .     S
V12     Er25    10.0   .     S
V12     V13    10.0   .     S
V12     V15    10.0   1_556     S
V12     V22    10.0   1_565     S
V13     V9    10.0   1_556     S
V13     Er25    10.0   .     S
V13     V15    10.0   1_556     S
V13     V17    10.0   .     S
V14     V10    10.0   1_556     S
V14     V11    10.0   1_655     S
V14     Er26    10.0   .     S
V14     V16    10.0   1_556     S
V14     V18    10.0   .     S
V15     Er30    10.0   .     S
V15     V12    10.0   1_554     S
V15     V13    10.0   1_554     S
V15     V19    10.0   1_565     S
V16     Er29    10.0   1_655     S
V16     V9    10.0   1_655     S
V16     V11    10.0   1_654     S
V16     V14    10.0   1_554     S
V16     V20    10.0   1_565     S
V17     Er27    10.0   .     S
V17     V19    10.0   1_556     S
V17     V22    10.0   .     S
V17     V21    10.0   .     S
V17     V23    10.0   1_556     S
V18     Er28    10.0   .     S
V18     V20    10.0   1_556     S
V18     V21    10.0   1_655     S
V18     V22    10.0   .     S
V18     V24    10.0   1_556     S
V19     V17    10.0   1_554     S
V19     Er32    10.0   .     S
V19     V24    10.0   .     S
V19     V22    10.0   1_554     S
V19     V23    10.0   .     S
V19     V15    10.0   1_545     S
V20     V18    10.0   1_554     S
V20     Er31    10.0   1_655     S
V20     V23    10.0   1_655     S
V20     V21    10.0   1_654     S
V20     V24    10.0   .     S
V20     V16    10.0   1_545     S
V21     Er28    10.0   1_455     S
V21     V18    10.0   1_455     S
V21     V20    10.0   1_456     S
V21     V23    10.0   1_556     S
V21     V11    10.0   1_545     S
V22     Er27    10.0   .     S
V22     V19    10.0   1_556     S
V22     V24    10.0   1_556     S
V22     V12    10.0   1_545     S
V23     V20    10.0   1_455     S
V23     Er31    10.0   .     S
V23     V21    10.0   1_554     S
V23     V17    10.0   1_554     S
V24     Er32    10.0   .     S
V24     V22    10.0   1_554     S
V24     V18    10.0   1_554     S
Er25     Er27    10.0   1_565     S
Er25     Er29    10.0   .     S
Er26     V11    10.0   1_655     S
Er26     Er3    10.0   1_655     S
Er26     Er28    10.0   1_565     S
Er26     Er30    10.0   .     S
Er27     Er25    10.0   1_545     S
Er27     Er31    10.0   .     S
Er28     V21    10.0   1_655     S
Er28     Er1    10.0   1_655     S
Er28     Er26    10.0   1_545     S
Er28     Er32    10.0   .     S
Er29     V16    10.0   1_455     S
Er29     Er8    10.0   1_455     S
Er29     Er31    10.0   1_565     S
Er30     Er32    10.0   1_565     S
Er31     V20    10.0   1_455     S
Er31     Er6    10.0   1_455     S
Er31     Er29    10.0   1_545     S
Er32     Er30    10.0   1_545     S
