data_hcp-d
_audit_creation_date              2019-12-31
_audit_creation_method            'Pymatgen'
_symmetry_space_group_name_H-M    'P1'
_symmetry_Int_Tables_number       1
loop_
_symmetry_equiv_pos_as_xyz
  x,y,z
_cell_length_a                    34.597
_cell_length_b                    34.597
_cell_length_c                    40.7372
_cell_angle_alpha                 90.0
_cell_angle_beta                 90.0
_cell_angle_gamma                 120.0
loop_
_atom_site_label
_atom_site_type_symbol
_atom_site_fract_x
_atom_site_fract_y
_atom_site_fract_z
Er1     Er     0.3333   0.1667   0.0037
Er2     Er     0.3333   0.1667   0.5037
Er3     Er     0.3333   0.6667   0.0037
Er4     Er     0.3333   0.6667   0.5037
Er5     Er     0.8333   0.1667   0.0037
Er6     Er     0.8333   0.1667   0.5037
Er7     Er     0.8333   0.6667   0.0037
Er8     Er     0.8333   0.6667   0.5037
Er9     Er     0.3333   0.1667   0.2463
Er10     Er     0.3333   0.1667   0.7463
Er11     Er     0.3333   0.6667   0.2463
Er12     Er     0.3333   0.6667   0.7463
Er13     Er     0.8333   0.1667   0.2463
Er14     Er     0.8333   0.1667   0.7463
Er15     Er     0.8333   0.6667   0.2463
Er16     Er     0.8333   0.6667   0.7463
Er17     Er     0.1667   0.3333   0.4963
Er18     Er     0.1667   0.3333   0.9963
Er19     Er     0.1667   0.8333   0.4963
Er20     Er     0.1667   0.8333   0.9963
Er21     Er     0.6667   0.3333   0.4963
Er22     Er     0.6667   0.3333   0.9963
Er23     Er     0.6667   0.8333   0.4963
Er24     Er     0.6667   0.8333   0.9963
Er25     Er     0.1667   0.3333   0.2537
Er26     Er     0.1667   0.3333   0.7537
Er27     Er     0.1667   0.8333   0.2537
Er28     Er     0.1667   0.8333   0.7537
Er29     Er     0.6667   0.3333   0.2537
Er30     Er     0.6667   0.3333   0.7537
Er31     Er     0.6667   0.8333   0.2537
Er32     Er     0.6667   0.8333   0.7537
V33     V     0.0   0.0   0.0
V34     V     0.0   0.0   0.5
V35     V     1.0   0.5   0.0
V36     V     1.0   0.5   0.5
V37     V     0.5   0.0   0.0
V38     V     0.5   0.0   0.5
V39     V     0.5   0.5   0.0
V40     V     0.5   0.5   0.5
V41     V     0.0   0.0   0.25
V42     V     0.0   0.0   0.75
V43     V     1.0   0.5   0.25
V44     V     1.0   0.5   0.75
V45     V     0.5   0.0   0.25
V46     V     0.5   0.0   0.75
V47     V     0.5   0.5   0.25
V48     V     0.5   0.5   0.75
loop_
_geom_bond_atom_site_label_1
_geom_bond_atom_site_label_2
_geom_bond_distance
_geom_bond_site_symmetry_2
_ccdc_geom_bond_type
Er1     Er9    9.885   .     S
Er1     V37    9.988   .     S
Er1     V39    9.988   .     S
Er1     V33    9.988   .     S
Er2     Er10    9.885   .     S
Er2     V38    9.988   .     S
Er2     V40    9.988   .     S
Er2     V34    9.988   .     S
Er3     Er11    9.885   .     S
Er3     V39    9.988   .     S
Er3     V37    9.988   1_565     S
Er3     V35    9.988   1_455     S
Er4     Er12    9.885   .     S
Er4     V40    9.988   .     S
Er4     V38    9.988   1_565     S
Er4     V36    9.988   1_455     S
Er5     Er13    9.885   .     S
Er5     V33    9.988   1_655     S
Er5     V35    9.988   .     S
Er5     V37    9.988   .     S
Er6     Er14    9.885   .     S
Er6     V34    9.988   1_655     S
Er6     V36    9.988   .     S
Er6     V38    9.988   .     S
Er7     Er15    9.885   .     S
Er7     V35    9.988   .     S
Er7     V33    9.988   1_665     S
Er7     V39    9.988   .     S
Er8     Er16    9.885   .     S
Er8     V36    9.988   .     S
Er8     V34    9.988   1_665     S
Er8     V40    9.988   .     S
Er9     V45    9.988   .     S
Er9     V47    9.988   .     S
Er9     V41    9.988   .     S
Er10     V46    9.988   .     S
Er10     V48    9.988   .     S
Er10     V42    9.988   .     S
Er11     V47    9.988   .     S
Er11     V45    9.988   1_565     S
Er11     V43    9.988   1_455     S
Er12     V48    9.988   .     S
Er12     V46    9.988   1_565     S
Er12     V44    9.988   1_455     S
Er13     V41    9.988   1_655     S
Er13     V43    9.988   .     S
Er13     V45    9.988   .     S
Er14     V42    9.988   1_655     S
Er14     V44    9.988   .     S
Er14     V46    9.988   .     S
Er15     V43    9.988   .     S
Er15     V41    9.988   1_665     S
Er15     V47    9.988   .     S
Er16     V44    9.988   .     S
Er16     V42    9.988   1_665     S
Er16     V48    9.988   .     S
Er17     Er25    9.885   .     S
Er17     V40    9.988   .     S
Er17     V36    9.988   1_455     S
Er17     V34    9.988   .     S
Er18     Er26    9.885   .     S
Er18     V39    9.988   1_556     S
Er18     V35    9.988   1_456     S
Er18     V33    9.988   1_556     S
Er19     Er27    9.885   .     S
Er19     V38    9.988   1_565     S
Er19     V34    9.988   1_565     S
Er19     V36    9.988   1_455     S
Er20     Er28    9.885   .     S
Er20     V37    9.988   1_566     S
Er20     V33    9.988   1_566     S
Er20     V35    9.988   1_456     S
Er21     Er29    9.885   .     S
Er21     V36    9.988   .     S
Er21     V40    9.988   .     S
Er21     V38    9.988   .     S
Er22     Er30    9.885   .     S
Er22     V35    9.988   1_556     S
Er22     V39    9.988   1_556     S
Er22     V37    9.988   1_556     S
Er23     Er31    9.885   .     S
Er23     V34    9.988   1_665     S
Er23     V38    9.988   1_565     S
Er23     V40    9.988   .     S
Er24     Er32    9.885   .     S
Er24     V33    9.988   1_666     S
Er24     V37    9.988   1_566     S
Er24     V39    9.988   1_556     S
Er25     V47    9.988   .     S
Er25     V43    9.988   1_455     S
Er25     V41    9.988   .     S
Er26     V48    9.988   .     S
Er26     V44    9.988   1_455     S
Er26     V42    9.988   .     S
Er27     V45    9.988   1_565     S
Er27     V41    9.988   1_565     S
Er27     V43    9.988   1_455     S
Er28     V46    9.988   1_565     S
Er28     V42    9.988   1_565     S
Er28     V44    9.988   1_455     S
Er29     V43    9.988   .     S
Er29     V47    9.988   .     S
Er29     V45    9.988   .     S
Er30     V44    9.988   .     S
Er30     V48    9.988   .     S
Er30     V46    9.988   .     S
Er31     V41    9.988   1_665     S
Er31     V45    9.988   1_565     S
Er31     V47    9.988   .     S
Er32     V42    9.988   1_665     S
Er32     V46    9.988   1_565     S
Er32     V48    9.988   .     S
V33     Er5    9.988   1_455     S
V33     Er7    9.988   1_445     S
V33     Er24    9.988   1_444     S
V33     Er20    9.988   1_544     S
V33     Er18    9.988   1_554     S
V33     V41    10.184   .     S
V33     V42    10.184   1_554     S
V34     Er6    9.988   1_455     S
V34     Er8    9.988   1_445     S
V34     Er23    9.988   1_445     S
V34     Er19    9.988   1_545     S
V34     V42    10.184   .     S
V34     V41    10.184   .     S
V35     Er3    9.988   1_655     S
V35     Er22    9.988   1_554     S
V35     Er18    9.988   1_654     S
V35     Er20    9.988   1_654     S
V35     V43    10.184   .     S
V35     V44    10.184   1_554     S
V36     Er4    9.988   1_655     S
V36     Er17    9.988   1_655     S
V36     Er19    9.988   1_655     S
V36     V44    10.184   .     S
V36     V43    10.184   .     S
V37     Er3    9.988   1_545     S
V37     Er20    9.988   1_544     S
V37     Er24    9.988   1_544     S
V37     Er22    9.988   1_554     S
V37     V45    10.184   .     S
V37     V46    10.184   1_554     S
V38     Er4    9.988   1_545     S
V38     Er19    9.988   1_545     S
V38     Er23    9.988   1_545     S
V38     V46    10.184   .     S
V38     V45    10.184   .     S
V39     Er18    9.988   1_554     S
V39     Er22    9.988   1_554     S
V39     Er24    9.988   1_554     S
V39     V47    10.184   .     S
V39     V48    10.184   1_554     S
V40     V48    10.184   .     S
V40     V47    10.184   .     S
V41     Er13    9.988   1_455     S
V41     Er15    9.988   1_445     S
V41     Er31    9.988   1_445     S
V41     Er27    9.988   1_545     S
V42     Er14    9.988   1_455     S
V42     Er16    9.988   1_445     S
V42     Er32    9.988   1_445     S
V42     Er28    9.988   1_545     S
V42     V33    10.184   1_556     S
V43     Er11    9.988   1_655     S
V43     Er25    9.988   1_655     S
V43     Er27    9.988   1_655     S
V44     Er12    9.988   1_655     S
V44     Er26    9.988   1_655     S
V44     Er28    9.988   1_655     S
V44     V35    10.184   1_556     S
V45     Er11    9.988   1_545     S
V45     Er27    9.988   1_545     S
V45     Er31    9.988   1_545     S
V46     Er12    9.988   1_545     S
V46     Er28    9.988   1_545     S
V46     Er32    9.988   1_545     S
V46     V37    10.184   1_556     S
V48     V39    10.184   1_556     S
