data_hcp
_audit_creation_date              2019-12-31
_audit_creation_method            'Pymatgen'
_symmetry_space_group_name_H-M    'P1'
_symmetry_Int_Tables_number       1
loop_
_symmetry_equiv_pos_as_xyz
  x,y,z
_cell_length_a                    30.0
_cell_length_b                    30.0
_cell_length_c                    32.66
_cell_angle_alpha                 90.0
_cell_angle_beta                 90.0
_cell_angle_gamma                 120.0
loop_
_atom_site_label
_atom_site_type_symbol
_atom_site_fract_x
_atom_site_fract_y
_atom_site_fract_z
V1     V     0.1111   0.2222   0.375
V2     V     0.1111   0.2222   0.875
V3     V     0.1111   0.5556   0.375
V4     V     0.1111   0.5556   0.875
V5     V     0.1111   0.8889   0.375
V6     V     0.1111   0.8889   0.875
V7     V     0.4444   0.2222   0.375
V8     V     0.4444   0.2222   0.875
V9     V     0.4444   0.5556   0.375
V10     V     0.4444   0.5556   0.875
V11     V     0.4444   0.8889   0.375
V12     V     0.4444   0.8889   0.875
V13     V     0.7778   0.2222   0.375
V14     V     0.7778   0.2222   0.875
V15     V     0.7778   0.5556   0.375
V16     V     0.7778   0.5556   0.875
V17     V     0.7778   0.8889   0.375
V18     V     0.7778   0.8889   0.875
V19     V     0.2222   0.1111   0.125
V20     V     0.2222   0.1111   0.625
V21     V     0.2222   0.4444   0.125
V22     V     0.2222   0.4444   0.625
V23     V     0.2222   0.7778   0.125
V24     V     0.2222   0.7778   0.625
V25     V     0.5556   0.1111   0.125
V26     V     0.5556   0.1111   0.625
V27     V     0.5556   0.4444   0.125
V28     V     0.5556   0.4444   0.625
V29     V     0.5556   0.7778   0.125
V30     V     0.5556   0.7778   0.625
V31     V     0.8889   0.1111   0.125
V32     V     0.8889   0.1111   0.625
V33     V     0.8889   0.4444   0.125
V34     V     0.8889   0.4444   0.625
V35     V     0.8889   0.7778   0.125
V36     V     0.8889   0.7778   0.625
loop_
_geom_bond_atom_site_label_1
_geom_bond_atom_site_label_2
_geom_bond_distance
_geom_bond_site_symmetry_2
_ccdc_geom_bond_type
V1     V9    10.0   .     S
V1     V17    10.0   1_445     S
V1     V5    10.0   1_545     S
V1     V3    10.0   .     S
V1     V7    10.0   .     S
V1     V13    10.0   1_455     S
V1     V22    10.0   .     S
V1     V19    10.0   .     S
V1     V32    10.0   1_455     S
V1     V21    10.0   .     S
V1     V20    10.0   .     S
V1     V31    10.0   1_455     S
V2     V10    10.0   .     S
V2     V18    10.0   1_445     S
V2     V6    10.0   1_545     S
V2     V4    10.0   .     S
V2     V8    10.0   .     S
V2     V14    10.0   1_455     S
V2     V21    10.0   1_556     S
V2     V20    10.0   .     S
V2     V31    10.0   1_456     S
V2     V22    10.0   .     S
V2     V19    10.0   1_556     S
V2     V32    10.0   1_455     S
V3     V11    10.0   .     S
V3     V13    10.0   1_455     S
V3     V5    10.0   .     S
V3     V9    10.0   .     S
V3     V15    10.0   1_455     S
V3     V24    10.0   .     S
V3     V21    10.0   .     S
V3     V34    10.0   1_455     S
V3     V23    10.0   .     S
V3     V22    10.0   .     S
V3     V33    10.0   1_455     S
V4     V12    10.0   .     S
V4     V14    10.0   1_455     S
V4     V6    10.0   .     S
V4     V10    10.0   .     S
V4     V16    10.0   1_455     S
V4     V23    10.0   1_556     S
V4     V22    10.0   .     S
V4     V33    10.0   1_456     S
V4     V24    10.0   .     S
V4     V21    10.0   1_556     S
V4     V34    10.0   1_455     S
V5     V7    10.0   1_565     S
V5     V15    10.0   1_455     S
V5     V1    10.0   1_565     S
V5     V11    10.0   .     S
V5     V17    10.0   1_455     S
V5     V20    10.0   1_565     S
V5     V23    10.0   .     S
V5     V36    10.0   1_455     S
V5     V19    10.0   1_565     S
V5     V24    10.0   .     S
V5     V35    10.0   1_455     S
V6     V8    10.0   1_565     S
V6     V16    10.0   1_455     S
V6     V2    10.0   1_565     S
V6     V12    10.0   .     S
V6     V18    10.0   1_455     S
V6     V19    10.0   1_566     S
V6     V24    10.0   .     S
V6     V35    10.0   1_456     S
V6     V20    10.0   1_565     S
V6     V23    10.0   1_556     S
V6     V36    10.0   1_455     S
V7     V5    10.0   1_545     S
V7     V15    10.0   .     S
V7     V11    10.0   1_545     S
V7     V9    10.0   .     S
V7     V13    10.0   .     S
V7     V28    10.0   .     S
V7     V25    10.0   .     S
V7     V20    10.0   .     S
V7     V27    10.0   .     S
V7     V26    10.0   .     S
V7     V19    10.0   .     S
V8     V6    10.0   1_545     S
V8     V16    10.0   .     S
V8     V12    10.0   1_545     S
V8     V10    10.0   .     S
V8     V14    10.0   .     S
V8     V27    10.0   1_556     S
V8     V26    10.0   .     S
V8     V19    10.0   1_556     S
V8     V28    10.0   .     S
V8     V25    10.0   1_556     S
V8     V20    10.0   .     S
V9     V17    10.0   .     S
V9     V11    10.0   .     S
V9     V15    10.0   .     S
V9     V30    10.0   .     S
V9     V27    10.0   .     S
V9     V22    10.0   .     S
V9     V29    10.0   .     S
V9     V28    10.0   .     S
V9     V21    10.0   .     S
V10     V18    10.0   .     S
V10     V12    10.0   .     S
V10     V16    10.0   .     S
V10     V29    10.0   1_556     S
V10     V28    10.0   .     S
V10     V21    10.0   1_556     S
V10     V30    10.0   .     S
V10     V27    10.0   1_556     S
V10     V22    10.0   .     S
V11     V13    10.0   1_565     S
V11     V7    10.0   1_565     S
V11     V17    10.0   .     S
V11     V26    10.0   1_565     S
V11     V29    10.0   .     S
V11     V24    10.0   .     S
V11     V25    10.0   1_565     S
V11     V30    10.0   .     S
V11     V23    10.0   .     S
V12     V14    10.0   1_565     S
V12     V8    10.0   1_565     S
V12     V18    10.0   .     S
V12     V25    10.0   1_566     S
V12     V30    10.0   .     S
V12     V23    10.0   1_556     S
V12     V26    10.0   1_565     S
V12     V29    10.0   1_556     S
V12     V24    10.0   .     S
V13     V11    10.0   1_545     S
V13     V3    10.0   1_655     S
V13     V17    10.0   1_545     S
V13     V15    10.0   .     S
V13     V1    10.0   1_655     S
V13     V34    10.0   .     S
V13     V31    10.0   .     S
V13     V26    10.0   .     S
V13     V33    10.0   .     S
V13     V32    10.0   .     S
V13     V25    10.0   .     S
V14     V12    10.0   1_545     S
V14     V4    10.0   1_655     S
V14     V18    10.0   1_545     S
V14     V16    10.0   .     S
V14     V2    10.0   1_655     S
V14     V33    10.0   1_556     S
V14     V32    10.0   .     S
V14     V25    10.0   1_556     S
V14     V34    10.0   .     S
V14     V31    10.0   1_556     S
V14     V26    10.0   .     S
V15     V5    10.0   1_655     S
V15     V17    10.0   .     S
V15     V3    10.0   1_655     S
V15     V36    10.0   .     S
V15     V33    10.0   .     S
V15     V28    10.0   .     S
V15     V35    10.0   .     S
V15     V34    10.0   .     S
V15     V27    10.0   .     S
V16     V6    10.0   1_655     S
V16     V18    10.0   .     S
V16     V4    10.0   1_655     S
V16     V35    10.0   1_556     S
V16     V34    10.0   .     S
V16     V27    10.0   1_556     S
V16     V36    10.0   .     S
V16     V33    10.0   1_556     S
V16     V28    10.0   .     S
V17     V1    10.0   1_665     S
V17     V13    10.0   1_565     S
V17     V5    10.0   1_655     S
V17     V32    10.0   1_565     S
V17     V35    10.0   .     S
V17     V30    10.0   .     S
V17     V31    10.0   1_565     S
V17     V36    10.0   .     S
V17     V29    10.0   .     S
V18     V2    10.0   1_665     S
V18     V14    10.0   1_565     S
V18     V6    10.0   1_655     S
V18     V31    10.0   1_566     S
V18     V36    10.0   .     S
V18     V29    10.0   1_556     S
V18     V32    10.0   1_565     S
V18     V35    10.0   1_556     S
V18     V30    10.0   .     S
V19     V35    10.0   1_445     S
V19     V27    10.0   .     S
V19     V21    10.0   .     S
V19     V23    10.0   1_545     S
V19     V31    10.0   1_455     S
V19     V25    10.0   .     S
V19     V6    10.0   1_544     S
V19     V8    10.0   1_554     S
V19     V5    10.0   1_545     S
V19     V2    10.0   1_554     S
V20     V36    10.0   1_445     S
V20     V28    10.0   .     S
V20     V22    10.0   .     S
V20     V24    10.0   1_545     S
V20     V32    10.0   1_455     S
V20     V26    10.0   .     S
V20     V5    10.0   1_545     S
V20     V6    10.0   1_545     S
V21     V31    10.0   1_455     S
V21     V29    10.0   .     S
V21     V23    10.0   .     S
V21     V33    10.0   1_455     S
V21     V27    10.0   .     S
V21     V2    10.0   1_554     S
V21     V10    10.0   1_554     S
V21     V4    10.0   1_554     S
V22     V32    10.0   1_455     S
V22     V30    10.0   .     S
V22     V24    10.0   .     S
V22     V34    10.0   1_455     S
V22     V28    10.0   .     S
V23     V33    10.0   1_455     S
V23     V25    10.0   1_565     S
V23     V19    10.0   1_565     S
V23     V35    10.0   1_455     S
V23     V29    10.0   .     S
V23     V4    10.0   1_554     S
V23     V12    10.0   1_554     S
V23     V6    10.0   1_554     S
V24     V34    10.0   1_455     S
V24     V26    10.0   1_565     S
V24     V20    10.0   1_565     S
V24     V36    10.0   1_455     S
V24     V30    10.0   .     S
V25     V23    10.0   1_545     S
V25     V33    10.0   .     S
V25     V27    10.0   .     S
V25     V29    10.0   1_545     S
V25     V31    10.0   .     S
V25     V12    10.0   1_544     S
V25     V14    10.0   1_554     S
V25     V11    10.0   1_545     S
V25     V8    10.0   1_554     S
V26     V24    10.0   1_545     S
V26     V34    10.0   .     S
V26     V28    10.0   .     S
V26     V30    10.0   1_545     S
V26     V32    10.0   .     S
V26     V11    10.0   1_545     S
V26     V12    10.0   1_545     S
V27     V35    10.0   .     S
V27     V29    10.0   .     S
V27     V33    10.0   .     S
V27     V8    10.0   1_554     S
V27     V16    10.0   1_554     S
V27     V10    10.0   1_554     S
V28     V36    10.0   .     S
V28     V30    10.0   .     S
V28     V34    10.0   .     S
V29     V31    10.0   1_565     S
V29     V25    10.0   1_565     S
V29     V35    10.0   .     S
V29     V10    10.0   1_554     S
V29     V18    10.0   1_554     S
V29     V12    10.0   1_554     S
V30     V32    10.0   1_565     S
V30     V26    10.0   1_565     S
V30     V36    10.0   .     S
V31     V21    10.0   1_655     S
V31     V29    10.0   1_545     S
V31     V33    10.0   .     S
V31     V35    10.0   1_545     S
V31     V19    10.0   1_655     S
V31     V18    10.0   1_544     S
V31     V2    10.0   1_654     S
V31     V17    10.0   1_545     S
V31     V14    10.0   1_554     S
V31     V1    10.0   1_655     S
V32     V22    10.0   1_655     S
V32     V30    10.0   1_545     S
V32     V34    10.0   .     S
V32     V36    10.0   1_545     S
V32     V20    10.0   1_655     S
V32     V17    10.0   1_545     S
V32     V1    10.0   1_655     S
V32     V18    10.0   1_545     S
V32     V2    10.0   1_655     S
V33     V23    10.0   1_655     S
V33     V35    10.0   .     S
V33     V21    10.0   1_655     S
V33     V14    10.0   1_554     S
V33     V4    10.0   1_654     S
V33     V16    10.0   1_554     S
V33     V3    10.0   1_655     S
V34     V24    10.0   1_655     S
V34     V36    10.0   .     S
V34     V22    10.0   1_655     S
V34     V3    10.0   1_655     S
V34     V4    10.0   1_655     S
V35     V19    10.0   1_665     S
V35     V31    10.0   1_565     S
V35     V23    10.0   1_655     S
V35     V16    10.0   1_554     S
V35     V6    10.0   1_654     S
V35     V18    10.0   1_554     S
V35     V5    10.0   1_655     S
V36     V20    10.0   1_665     S
V36     V32    10.0   1_565     S
V36     V24    10.0   1_655     S
V36     V5    10.0   1_655     S
V36     V6    10.0   1_655     S
