data_hex
_audit_creation_date              2019-12-31
_audit_creation_method            'Pymatgen'
_symmetry_space_group_name_H-M    'P1'
_symmetry_Int_Tables_number       1
loop_
_symmetry_equiv_pos_as_xyz
  x,y,z
_cell_length_a                    30.0
_cell_length_b                    30.0
_cell_length_c                    30.0
_cell_angle_alpha                 90.0
_cell_angle_beta                 90.0
_cell_angle_gamma                 120.0
loop_
_atom_site_label
_atom_site_type_symbol
_atom_site_fract_x
_atom_site_fract_y
_atom_site_fract_z
V1     V     0.0   0.0   0.0
V2     V     0.0   0.0   0.3333
V3     V     0.0   0.0   0.6667
V4     V     1.0   0.3333   0.0
V5     V     1.0   0.3333   0.3333
V6     V     1.0   0.3333   0.6667
V7     V     1.0   0.6667   0.0
V8     V     1.0   0.6667   0.3333
V9     V     1.0   0.6667   0.6667
V10     V     0.3333   0.0   0.0
V11     V     0.3333   0.0   0.3333
V12     V     0.3333   0.0   0.6667
V13     V     0.3333   0.3333   0.0
V14     V     0.3333   0.3333   0.3333
V15     V     0.3333   0.3333   0.6667
V16     V     0.3333   0.6667   0.0
V17     V     0.3333   0.6667   0.3333
V18     V     0.3333   0.6667   0.6667
V19     V     0.6667   0.0   0.0
V20     V     0.6667   0.0   0.3333
V21     V     0.6667   0.0   0.6667
V22     V     0.6667   0.3333   0.0
V23     V     0.6667   0.3333   0.3333
V24     V     0.6667   0.3333   0.6667
V25     V     0.6667   0.6667   0.0
V26     V     0.6667   0.6667   0.3333
V27     V     0.6667   0.6667   0.6667
loop_
_geom_bond_atom_site_label_1
_geom_bond_atom_site_label_2
_geom_bond_distance
_geom_bond_site_symmetry_2
_ccdc_geom_bond_type
V1     V4    10.0   1_455     S
V1     V7    10.0   1_445     S
V1     V10    10.0   .     S
V1     V19    10.0   1_455     S
V1     V13    10.0   .     S
V1     V25    10.0   1_445     S
V1     V2    10.0   .     S
V1     V3    10.0   1_554     S
V2     V5    10.0   1_455     S
V2     V8    10.0   1_445     S
V2     V11    10.0   .     S
V2     V20    10.0   1_455     S
V2     V14    10.0   .     S
V2     V26    10.0   1_445     S
V2     V3    10.0   .     S
V3     V6    10.0   1_455     S
V3     V9    10.0   1_445     S
V3     V12    10.0   .     S
V3     V21    10.0   1_455     S
V3     V15    10.0   .     S
V3     V27    10.0   1_445     S
V3     V1    10.0   1_556     S
V4     V1    10.0   1_655     S
V4     V7    10.0   .     S
V4     V13    10.0   1_655     S
V4     V22    10.0   .     S
V4     V16    10.0   1_655     S
V4     V19    10.0   .     S
V4     V5    10.0   .     S
V4     V6    10.0   1_554     S
V5     V2    10.0   1_655     S
V5     V8    10.0   .     S
V5     V14    10.0   1_655     S
V5     V23    10.0   .     S
V5     V17    10.0   1_655     S
V5     V20    10.0   .     S
V5     V6    10.0   .     S
V6     V3    10.0   1_655     S
V6     V9    10.0   .     S
V6     V15    10.0   1_655     S
V6     V24    10.0   .     S
V6     V18    10.0   1_655     S
V6     V21    10.0   .     S
V6     V4    10.0   1_556     S
V7     V1    10.0   1_665     S
V7     V16    10.0   1_655     S
V7     V25    10.0   .     S
V7     V10    10.0   1_665     S
V7     V22    10.0   .     S
V7     V8    10.0   .     S
V7     V9    10.0   1_554     S
V8     V2    10.0   1_665     S
V8     V17    10.0   1_655     S
V8     V26    10.0   .     S
V8     V11    10.0   1_665     S
V8     V23    10.0   .     S
V8     V9    10.0   .     S
V9     V3    10.0   1_665     S
V9     V18    10.0   1_655     S
V9     V27    10.0   .     S
V9     V12    10.0   1_665     S
V9     V24    10.0   .     S
V9     V7    10.0   1_556     S
V10     V13    10.0   .     S
V10     V16    10.0   1_545     S
V10     V19    10.0   .     S
V10     V7    10.0   1_445     S
V10     V22    10.0   .     S
V10     V11    10.0   .     S
V10     V12    10.0   1_554     S
V11     V14    10.0   .     S
V11     V17    10.0   1_545     S
V11     V20    10.0   .     S
V11     V8    10.0   1_445     S
V11     V23    10.0   .     S
V11     V12    10.0   .     S
V12     V15    10.0   .     S
V12     V18    10.0   1_545     S
V12     V21    10.0   .     S
V12     V9    10.0   1_445     S
V12     V24    10.0   .     S
V12     V10    10.0   1_556     S
V13     V16    10.0   .     S
V13     V4    10.0   1_455     S
V13     V22    10.0   .     S
V13     V25    10.0   .     S
V13     V14    10.0   .     S
V13     V15    10.0   1_554     S
V14     V17    10.0   .     S
V14     V5    10.0   1_455     S
V14     V23    10.0   .     S
V14     V26    10.0   .     S
V14     V15    10.0   .     S
V15     V18    10.0   .     S
V15     V6    10.0   1_455     S
V15     V24    10.0   .     S
V15     V27    10.0   .     S
V15     V13    10.0   1_556     S
V16     V10    10.0   1_565     S
V16     V7    10.0   1_455     S
V16     V25    10.0   .     S
V16     V4    10.0   1_455     S
V16     V19    10.0   1_565     S
V16     V17    10.0   .     S
V16     V18    10.0   1_554     S
V17     V11    10.0   1_565     S
V17     V8    10.0   1_455     S
V17     V26    10.0   .     S
V17     V5    10.0   1_455     S
V17     V20    10.0   1_565     S
V17     V18    10.0   .     S
V18     V12    10.0   1_565     S
V18     V9    10.0   1_455     S
V18     V27    10.0   .     S
V18     V6    10.0   1_455     S
V18     V21    10.0   1_565     S
V18     V16    10.0   1_556     S
V19     V22    10.0   .     S
V19     V25    10.0   1_545     S
V19     V1    10.0   1_655     S
V19     V16    10.0   1_545     S
V19     V20    10.0   .     S
V19     V21    10.0   1_554     S
V20     V23    10.0   .     S
V20     V26    10.0   1_545     S
V20     V2    10.0   1_655     S
V20     V17    10.0   1_545     S
V20     V21    10.0   .     S
V21     V24    10.0   .     S
V21     V27    10.0   1_545     S
V21     V3    10.0   1_655     S
V21     V18    10.0   1_545     S
V21     V19    10.0   1_556     S
V22     V25    10.0   .     S
V22     V23    10.0   .     S
V22     V24    10.0   1_554     S
V23     V26    10.0   .     S
V23     V24    10.0   .     S
V24     V27    10.0   .     S
V24     V22    10.0   1_556     S
V25     V19    10.0   1_565     S
V25     V1    10.0   1_665     S
V25     V26    10.0   .     S
V25     V27    10.0   1_554     S
V26     V20    10.0   1_565     S
V26     V2    10.0   1_665     S
V26     V27    10.0   .     S
V27     V21    10.0   1_565     S
V27     V3    10.0   1_665     S
V27     V25    10.0   1_556     S
