data_hfp
_audit_creation_date              2019-12-31
_audit_creation_method            'Pymatgen'
_symmetry_space_group_name_H-M    'P1'
_symmetry_Int_Tables_number       1
loop_
_symmetry_equiv_pos_as_xyz
  x,y,z
_cell_length_a                    23.1122
_cell_length_b                    56.5232
_cell_length_c                    32.7814
_cell_angle_alpha                 90.0
_cell_angle_beta                 90.0
_cell_angle_gamma                 90.0
loop_
_atom_site_label
_atom_site_type_symbol
_atom_site_fract_x
_atom_site_fract_y
_atom_site_fract_z
Ce1     Ce     0.7507   0.8739   0.125
Ce2     Ce     0.7507   0.8739   0.625
Ti3     Ti     0.0   0.7502   0.2513
Ti4     Ti     0.0   0.7502   0.7513
Ce5     Ce     0.2493   0.8739   0.125
Ce6     Ce     0.2493   0.8739   0.625
Ti7     Ti     0.0   0.7502   0.4987
Ti8     Ti     0.0   0.7502   0.9987
Ce9     Ce     0.7493   0.6261   0.375
Ce10     Ce     0.7493   0.6261   0.875
Ce11     Ce     0.2507   0.6261   0.375
Ce12     Ce     0.2507   0.6261   0.875
Ti13     Ti     0.5   0.7498   0.2487
Ti14     Ti     0.5   0.7498   0.7487
Ti15     Ti     0.5   0.7498   0.0013
Ti16     Ti     0.5   0.7498   0.5013
Er17     Er     0.5   0.8738   0.375
Er18     Er     0.5   0.8738   0.875
Er19     Er     0.0   0.6262   0.125
Er20     Er     0.0   0.6262   0.625
V21     V     0.5   0.5   0.0
V22     V     0.5   0.5   0.5
V23     V     0.5   0.5   0.25
V24     V     0.5   0.5   0.75
Ce25     Ce     0.2507   0.3739   0.125
Ce26     Ce     0.2507   0.3739   0.625
Ce27     Ce     0.7493   0.3739   0.125
Ce28     Ce     0.7493   0.3739   0.625
Ti29     Ti     0.5   0.2502   0.2513
Ti30     Ti     0.5   0.2502   0.7513
Ti31     Ti     0.5   0.2502   0.4987
Ti32     Ti     0.5   0.2502   0.9987
Ce33     Ce     0.7507   0.1261   0.375
Ce34     Ce     0.7507   0.1261   0.875
Ce35     Ce     0.2493   0.1261   0.375
Ce36     Ce     0.2493   0.1261   0.875
Ti37     Ti     0.0   0.2498   0.2487
Ti38     Ti     0.0   0.2498   0.7487
Ti39     Ti     0.0   0.2498   0.0013
Ti40     Ti     0.0   0.2498   0.5013
Er41     Er     0.0   0.3738   0.375
Er42     Er     0.0   0.3738   0.875
Er43     Er     0.5   0.1262   0.125
Er44     Er     0.5   0.1262   0.625
V45     V     0.0   0.0   0.0
V46     V     0.0   0.0   0.5
V47     V     0.0   0.0   0.25
V48     V     0.0   0.0   0.75
loop_
_geom_bond_atom_site_label_1
_geom_bond_atom_site_label_2
_geom_bond_distance
_geom_bond_site_symmetry_2
_ccdc_geom_bond_type
Ce1     Ti3    9.962   1_655     S
Ce1     Ti8    9.962   1_654     S
Ce1     Ti15    9.963   .     S
Ce1     Ti13    9.963   .     S
Ce1     V47    10.037   1_665     S
Ce1     V45    10.037   1_665     S
Ce1     Er18    10.037   1_554     S
Ce1     Er17    10.037   .     S
Ce2     Ti4    9.962   1_655     S
Ce2     Ti7    9.962   1_655     S
Ce2     Ti16    9.963   .     S
Ce2     Ti14    9.963   .     S
Ce2     V48    10.037   1_665     S
Ce2     V46    10.037   1_665     S
Ce2     Er17    10.037   .     S
Ce2     Er18    10.037   .     S
Ti3     Ce11    9.963   .     S
Ti3     Ce9    9.963   1_455     S
Ti3     Ce1    9.962   1_455     S
Ti3     Ce5    9.962   .     S
Ti4     Ce12    9.963   .     S
Ti4     Ce10    9.963   1_455     S
Ti4     Ce2    9.962   1_455     S
Ti4     Ce6    9.962   .     S
Ce5     Ti8    9.962   1_554     S
Ce5     Ti13    9.963   .     S
Ce5     Ti15    9.963   .     S
Ce5     V45    10.037   1_565     S
Ce5     V47    10.037   1_565     S
Ce5     Er17    10.037   .     S
Ce5     Er18    10.037   1_554     S
Ce6     Ti7    9.962   .     S
Ce6     Ti14    9.963   .     S
Ce6     Ti16    9.963   .     S
Ce6     V46    10.037   1_565     S
Ce6     V48    10.037   1_565     S
Ce6     Er18    10.037   .     S
Ce6     Er17    10.037   .     S
Ti7     Ce11    9.963   .     S
Ti7     Ce9    9.963   1_455     S
Ti7     Ce2    9.962   1_455     S
Ti8     Ce12    9.963   .     S
Ti8     Ce10    9.963   1_455     S
Ti8     Ce1    9.962   1_456     S
Ti8     Ce5    9.962   1_556     S
Ce9     Ti3    9.963   1_655     S
Ce9     Ti7    9.963   1_655     S
Ce9     Ti16    9.962   .     S
Ce9     Ti13    9.962   .     S
Ce9     Er19    10.037   1_655     S
Ce9     Er20    10.037   1_655     S
Ce9     V22    10.037   .     S
Ce9     V23    10.037   .     S
Ce10     Ti4    9.963   1_655     S
Ce10     Ti8    9.963   1_655     S
Ce10     Ti15    9.962   1_556     S
Ce10     Ti14    9.962   .     S
Ce10     Er20    10.037   1_655     S
Ce10     Er19    10.037   1_656     S
Ce10     V21    10.037   1_556     S
Ce10     V24    10.037   .     S
Ce11     Ti13    9.962   .     S
Ce11     Ti16    9.962   .     S
Ce11     Er20    10.037   .     S
Ce11     Er19    10.037   .     S
Ce11     V23    10.037   .     S
Ce11     V22    10.037   .     S
Ce12     Ti14    9.962   .     S
Ce12     Ti15    9.962   1_556     S
Ce12     Er19    10.037   1_556     S
Ce12     Er20    10.037   .     S
Ce12     V24    10.037   .     S
Ce12     V21    10.037   1_556     S
Ti15     Ce10    9.962   1_554     S
Ti15     Ce12    9.962   1_554     S
Er18     Ce5    10.037   1_556     S
Er18     Ce1    10.037   1_556     S
Er19     Ce12    10.037   1_554     S
Er19     Ce9    10.037   1_455     S
Er19     Ce10    10.037   1_454     S
Er20     Ce10    10.037   1_455     S
Er20     Ce9    10.037   1_455     S
V21     Ce12    10.037   1_554     S
V21     Ce10    10.037   1_554     S
V21     Ce27    10.037   .     S
V21     Ce25    10.037   .     S
V22     Ce28    10.037   .     S
V22     Ce26    10.037   .     S
V23     Ce27    10.037   .     S
V23     Ce25    10.037   .     S
V24     Ce28    10.037   .     S
V24     Ce26    10.037   .     S
Ce25     Ti29    9.962   .     S
Ce25     Ti32    9.962   1_554     S
Ce25     Ti39    9.963   .     S
Ce25     Ti37    9.963   .     S
Ce25     Er42    10.037   1_554     S
Ce25     Er41    10.037   .     S
Ce26     Ti30    9.962   .     S
Ce26     Ti31    9.962   .     S
Ce26     Ti40    9.963   .     S
Ce26     Ti38    9.963   .     S
Ce26     Er41    10.037   .     S
Ce26     Er42    10.037   .     S
Ce27     Ti32    9.962   1_554     S
Ce27     Ti29    9.962   .     S
Ce27     Ti37    9.963   1_655     S
Ce27     Ti39    9.963   1_655     S
Ce27     Er41    10.037   1_655     S
Ce27     Er42    10.037   1_654     S
Ce28     Ti31    9.962   .     S
Ce28     Ti30    9.962   .     S
Ce28     Ti38    9.963   1_655     S
Ce28     Ti40    9.963   1_655     S
Ce28     Er42    10.037   1_655     S
Ce28     Er41    10.037   1_655     S
Ti29     Ce35    9.963   .     S
Ti29     Ce33    9.963   .     S
Ti30     Ce36    9.963   .     S
Ti30     Ce34    9.963   .     S
Ti31     Ce35    9.963   .     S
Ti31     Ce33    9.963   .     S
Ti32     Ce36    9.963   .     S
Ti32     Ce34    9.963   .     S
Ti32     Ce25    9.962   1_556     S
Ti32     Ce27    9.962   1_556     S
Ce33     Ti37    9.962   1_655     S
Ce33     Ti40    9.962   1_655     S
Ce33     Er44    10.037   .     S
Ce33     Er43    10.037   .     S
Ce33     V47    10.037   1_655     S
Ce33     V46    10.037   1_655     S
Ce34     Ti38    9.962   1_655     S
Ce34     Ti39    9.962   1_656     S
Ce34     Er43    10.037   1_556     S
Ce34     Er44    10.037   .     S
Ce34     V48    10.037   1_655     S
Ce34     V45    10.037   1_656     S
Ce35     Ti40    9.962   .     S
Ce35     Ti37    9.962   .     S
Ce35     Er43    10.037   .     S
Ce35     Er44    10.037   .     S
Ce35     V46    10.037   .     S
Ce35     V47    10.037   .     S
Ce36     Ti39    9.962   1_556     S
Ce36     Ti38    9.962   .     S
Ce36     Er44    10.037   .     S
Ce36     Er43    10.037   1_556     S
Ce36     V45    10.037   1_556     S
Ce36     V48    10.037   .     S
Ti37     Ce27    9.963   1_455     S
Ti37     Ce33    9.962   1_455     S
Ti38     Ce28    9.963   1_455     S
Ti38     Ce34    9.962   1_455     S
Ti39     Ce27    9.963   1_455     S
Ti39     Ce34    9.962   1_454     S
Ti39     Ce36    9.962   1_554     S
Ti40     Ce28    9.963   1_455     S
Ti40     Ce33    9.962   1_455     S
Er41     Ce27    10.037   1_455     S
Er41     Ce28    10.037   1_455     S
Er42     Ce28    10.037   1_455     S
Er42     Ce27    10.037   1_456     S
Er42     Ce25    10.037   1_556     S
Er43     Ce36    10.037   1_554     S
Er43     Ce34    10.037   1_554     S
V45     Ce1    10.037   1_445     S
V45     Ce5    10.037   1_545     S
V45     Ce36    10.037   1_554     S
V45     Ce34    10.037   1_454     S
V46     Ce2    10.037   1_445     S
V46     Ce6    10.037   1_545     S
V46     Ce33    10.037   1_455     S
V47     Ce1    10.037   1_445     S
V47     Ce5    10.037   1_545     S
V47     Ce33    10.037   1_455     S
V48     Ce2    10.037   1_445     S
V48     Ce6    10.037   1_545     S
V48     Ce34    10.037   1_455     S
