data_hjm
_audit_creation_date              2019-12-31
_audit_creation_method            'Pymatgen'
_symmetry_space_group_name_H-M    'P1'
_symmetry_Int_Tables_number       1
loop_
_symmetry_equiv_pos_as_xyz
  x,y,z
_cell_length_a                    28.3826
_cell_length_b                    20.7852
_cell_length_c                    27.2828
_cell_angle_alpha                 90.0
_cell_angle_beta                 92.3596
_cell_angle_gamma                 90.0
loop_
_atom_site_label
_atom_site_type_symbol
_atom_site_fract_x
_atom_site_fract_y
_atom_site_fract_z
V1     V     0.1719   0.4261   0.0923
V2     V     0.1719   0.4261   0.5923
V3     V     0.1719   0.9261   0.0923
V4     V     0.1719   0.9261   0.5923
V5     V     0.6719   0.4261   0.0923
V6     V     0.6719   0.4261   0.5923
V7     V     0.6719   0.9261   0.0923
V8     V     0.6719   0.9261   0.5923
V9     V     0.3281   0.0739   0.4077
V10     V     0.3281   0.0739   0.9077
V11     V     0.3281   0.5739   0.4077
V12     V     0.3281   0.5739   0.9077
V13     V     0.8281   0.0739   0.4077
V14     V     0.8281   0.0739   0.9077
V15     V     0.8281   0.5739   0.4077
V16     V     0.8281   0.5739   0.9077
V17     V     0.0781   0.3239   0.4077
V18     V     0.0781   0.3239   0.9077
V19     V     0.0781   0.8239   0.4077
V20     V     0.0781   0.8239   0.9077
V21     V     0.5781   0.3239   0.4077
V22     V     0.5781   0.3239   0.9077
V23     V     0.5781   0.8239   0.4077
V24     V     0.5781   0.8239   0.9077
V25     V     0.4219   0.1761   0.0923
V26     V     0.4219   0.1761   0.5923
V27     V     0.4219   0.6761   0.0923
V28     V     0.4219   0.6761   0.5923
V29     V     0.9219   0.1761   0.0923
V30     V     0.9219   0.1761   0.5923
V31     V     0.9219   0.6761   0.0923
V32     V     0.9219   0.6761   0.5923
V33     V     0.3281   0.4261   0.1577
V34     V     0.3281   0.4261   0.6577
V35     V     0.3281   0.9261   0.1577
V36     V     0.3281   0.9261   0.6577
V37     V     0.8281   0.4261   0.1577
V38     V     0.8281   0.4261   0.6577
V39     V     0.8281   0.9261   0.1577
V40     V     0.8281   0.9261   0.6577
V41     V     0.1719   0.0739   0.3423
V42     V     0.1719   0.0739   0.8423
V43     V     0.1719   0.5739   0.3423
V44     V     0.1719   0.5739   0.8423
V45     V     0.6719   0.0739   0.3423
V46     V     0.6719   0.0739   0.8423
V47     V     0.6719   0.5739   0.3423
V48     V     0.6719   0.5739   0.8423
V49     V     0.0781   0.1761   0.1577
V50     V     0.0781   0.1761   0.6577
V51     V     0.0781   0.6761   0.1577
V52     V     0.0781   0.6761   0.6577
V53     V     0.5781   0.1761   0.1577
V54     V     0.5781   0.1761   0.6577
V55     V     0.5781   0.6761   0.1577
V56     V     0.5781   0.6761   0.6577
V57     V     0.4219   0.3239   0.3423
V58     V     0.4219   0.3239   0.8423
V59     V     0.4219   0.8239   0.3423
V60     V     0.4219   0.8239   0.8423
V61     V     0.9219   0.3239   0.3423
V62     V     0.9219   0.3239   0.8423
V63     V     0.9219   0.8239   0.3423
V64     V     0.9219   0.8239   0.8423
loop_
_geom_bond_atom_site_label_1
_geom_bond_atom_site_label_2
_geom_bond_distance
_geom_bond_site_symmetry_2
_ccdc_geom_bond_type
V1     V11    10.003   .     S
V1     V10    10.021   1_554     S
V1     V37    9.991   1_455     S
V1     V20    9.985   1_554     S
V2     V12    10.003   .     S
V2     V9    10.021   .     S
V2     V38    9.991   1_455     S
V2     V19    9.985   .     S
V3     V9    10.003   1_565     S
V3     V12    10.021   1_554     S
V3     V39    9.991   1_455     S
V3     V18    9.985   1_564     S
V4     V10    10.003   1_565     S
V4     V11    10.021   .     S
V4     V40    9.991   1_455     S
V4     V17    9.985   1_565     S
V5     V15    10.003   .     S
V5     V14    10.021   1_554     S
V5     V33    9.991   .     S
V5     V24    9.985   1_554     S
V6     V16    10.003   .     S
V6     V13    10.021   .     S
V6     V34    9.991   .     S
V6     V23    9.985   .     S
V7     V13    10.003   1_565     S
V7     V16    10.021   1_554     S
V7     V35    9.991   .     S
V7     V22    9.985   1_564     S
V8     V14    10.003   1_565     S
V8     V15    10.021   .     S
V8     V36    9.991   .     S
V8     V21    9.985   1_565     S
V9     V3    10.003   1_545     S
V9     V45    9.991   .     S
V9     V28    9.985   1_545     S
V10     V4    10.003   1_545     S
V10     V1    10.021   1_556     S
V10     V46    9.991   .     S
V10     V27    9.985   1_546     S
V11     V47    9.991   .     S
V11     V26    9.985   .     S
V12     V3    10.021   1_556     S
V12     V48    9.991   .     S
V12     V25    9.985   1_556     S
V13     V7    10.003   1_545     S
V13     V41    9.991   1_655     S
V13     V32    9.985   1_545     S
V14     V8    10.003   1_545     S
V14     V5    10.021   1_556     S
V14     V42    9.991   1_655     S
V14     V31    9.985   1_546     S
V15     V43    9.991   1_655     S
V15     V30    9.985   .     S
V16     V7    10.021   1_556     S
V16     V44    9.991   1_655     S
V16     V29    9.985   1_556     S
V17     V32    10.021   1_455     S
V17     V29    10.003   1_455     S
V17     V57    9.991   .     S
V17     V4    9.985   1_545     S
V18     V31    10.021   1_456     S
V18     V30    10.003   1_455     S
V18     V58    9.991   .     S
V18     V3    9.985   1_546     S
V19     V30    10.021   1_465     S
V19     V31    10.003   1_455     S
V19     V59    9.991   .     S
V20     V29    10.021   1_466     S
V20     V32    10.003   1_455     S
V20     V60    9.991   .     S
V20     V1    9.985   1_556     S
V21     V28    10.021   .     S
V21     V25    10.003   .     S
V21     V61    9.991   .     S
V21     V8    9.985   1_545     S
V22     V27    10.021   1_556     S
V22     V26    10.003   .     S
V22     V62    9.991   .     S
V22     V7    9.985   1_546     S
V23     V26    10.021   1_565     S
V23     V27    10.003   .     S
V23     V63    9.991   .     S
V24     V25    10.021   1_566     S
V24     V28    10.003   .     S
V24     V64    9.991   .     S
V24     V5    9.985   1_556     S
V25     V24    10.021   1_544     S
V25     V49    9.991   .     S
V25     V12    9.985   1_554     S
V26     V23    10.021   1_545     S
V26     V50    9.991   .     S
V27     V22    10.021   1_554     S
V27     V51    9.991   .     S
V27     V10    9.985   1_564     S
V28     V52    9.991   .     S
V28     V9    9.985   1_565     S
V29     V20    10.021   1_644     S
V29     V17    10.003   1_655     S
V29     V53    9.991   .     S
V29     V16    9.985   1_554     S
V30     V19    10.021   1_645     S
V30     V18    10.003   1_655     S
V30     V54    9.991   .     S
V31     V18    10.021   1_654     S
V31     V19    10.003   1_655     S
V31     V55    9.991   .     S
V31     V14    9.985   1_564     S
V32     V17    10.021   1_655     S
V32     V20    10.003   1_655     S
V32     V56    9.991   .     S
V32     V13    9.985   1_565     S
V33     V44    10.003   1_554     S
V33     V41    10.021   .     S
V33     V59    9.985   .     S
V34     V43    10.003   .     S
V34     V42    10.021   .     S
V34     V60    9.985   .     S
V35     V42    10.003   1_564     S
V35     V43    10.021   .     S
V35     V57    9.985   1_565     S
V36     V41    10.003   1_565     S
V36     V44    10.021   .     S
V36     V58    9.985   1_565     S
V37     V48    10.003   1_554     S
V37     V45    10.021   .     S
V37     V1    9.991   1_655     S
V37     V63    9.985   .     S
V38     V47    10.003   .     S
V38     V46    10.021   .     S
V38     V2    9.991   1_655     S
V38     V64    9.985   .     S
V39     V46    10.003   1_564     S
V39     V47    10.021   .     S
V39     V3    9.991   1_655     S
V39     V61    9.985   1_565     S
V40     V45    10.003   1_565     S
V40     V48    10.021   .     S
V40     V4    9.991   1_655     S
V40     V62    9.985   1_565     S
V41     V36    10.003   1_545     S
V41     V13    9.991   1_455     S
V41     V51    9.985   1_545     S
V42     V35    10.003   1_546     S
V42     V14    9.991   1_455     S
V42     V52    9.985   1_545     S
V43     V15    9.991   1_455     S
V43     V49    9.985   .     S
V44     V33    10.003   1_556     S
V44     V16    9.991   1_455     S
V44     V50    9.985   .     S
V45     V40    10.003   1_545     S
V45     V55    9.985   1_545     S
V46     V39    10.003   1_546     S
V46     V56    9.985   1_545     S
V47     V53    9.985   .     S
V48     V37    10.003   1_556     S
V48     V54    9.985   .     S
V49     V62    10.003   1_454     S
V49     V63    10.021   1_445     S
V50     V61    10.003   1_455     S
V50     V64    10.021   1_445     S
V51     V64    10.003   1_454     S
V51     V61    10.021   1_455     S
V51     V41    9.985   1_565     S
V52     V63    10.003   1_455     S
V52     V62    10.021   1_455     S
V52     V42    9.985   1_565     S
V53     V58    10.003   1_554     S
V53     V59    10.021   1_545     S
V54     V57    10.003   .     S
V54     V60    10.021   1_545     S
V55     V60    10.003   1_554     S
V55     V57    10.021   .     S
V55     V45    9.985   1_565     S
V56     V59    10.003   .     S
V56     V58    10.021   .     S
V56     V46    9.985   1_565     S
V57     V35    9.985   1_545     S
V58     V53    10.003   1_556     S
V58     V36    9.985   1_545     S
V59     V53    10.021   1_565     S
V60     V55    10.003   1_556     S
V60     V54    10.021   1_565     S
V61     V50    10.003   1_655     S
V61     V51    10.021   1_655     S
V61     V39    9.985   1_545     S
V62     V49    10.003   1_656     S
V62     V52    10.021   1_655     S
V62     V40    9.985   1_545     S
V63     V52    10.003   1_655     S
V63     V49    10.021   1_665     S
V64     V51    10.003   1_656     S
V64     V50    10.021   1_665     S
