data_hlz
_audit_creation_date              2019-12-31
_audit_creation_method            'Pymatgen'
_symmetry_space_group_name_H-M    'P1'
_symmetry_Int_Tables_number       1
loop_
_symmetry_equiv_pos_as_xyz
  x,y,z
_cell_length_a                    31.2133
_cell_length_b                    31.2133
_cell_length_c                    29.9997
_cell_angle_alpha                 90.0
_cell_angle_beta                 90.0
_cell_angle_gamma                 90.0
loop_
_atom_site_label
_atom_site_type_symbol
_atom_site_fract_x
_atom_site_fract_y
_atom_site_fract_z
Er1     Er     0.1602   0.8398   0.1667
Er2     Er     0.1602   0.8398   0.5
Er3     Er     0.1602   0.8398   0.8333
V4     V     0.3867   0.6133   0.1667
V5     V     0.3867   0.6133   0.5
V6     V     0.3867   0.6133   0.8333
V7     V     0.6133   0.3867   0.1667
V8     V     0.6133   0.3867   0.5
V9     V     0.6133   0.3867   0.8333
Er10     Er     0.8398   0.1602   0.1667
Er11     Er     0.8398   0.1602   0.5
Er12     Er     0.8398   0.1602   0.8333
V13     V     0.1133   0.1133   0.0
V14     V     0.1133   0.1133   0.3333
V15     V     0.1133   0.1133   0.6667
V16     V     0.8867   0.8867   0.0
V17     V     0.8867   0.8867   0.3333
V18     V     0.8867   0.8867   0.6667
Er19     Er     0.6602   0.6602   0.0
Er20     Er     0.6602   0.6602   0.3333
Er21     Er     0.6602   0.6602   0.6667
Er22     Er     0.3398   0.3398   0.0
Er23     Er     0.3398   0.3398   0.3333
Er24     Er     0.3398   0.3398   0.6667
loop_
_geom_bond_atom_site_label_1
_geom_bond_atom_site_label_2
_geom_bond_distance
_geom_bond_site_symmetry_2
_ccdc_geom_bond_type
Er1     V13    10.0   1_565     S
Er1     V14    10.0   1_565     S
Er1     V17    10.0   1_455     S
Er1     V16    10.0   1_455     S
Er1     V4    10.0   .     S
Er2     V14    10.0   1_565     S
Er2     V15    10.0   1_565     S
Er2     V18    10.0   1_455     S
Er2     V17    10.0   1_455     S
Er2     V5    10.0   .     S
Er3     V15    10.0   1_565     S
Er3     V13    10.0   1_566     S
Er3     V16    10.0   1_456     S
Er3     V18    10.0   1_455     S
Er3     V6    10.0   .     S
V4     Er22    10.0   .     S
V4     Er23    10.0   .     S
V4     Er20    10.0   .     S
V4     Er19    10.0   .     S
V4     V6    10.0   1_554     S
V4     V5    10.0   .     S
V4     V7    10.0   .     S
V5     Er23    10.0   .     S
V5     Er24    10.0   .     S
V5     Er21    10.0   .     S
V5     Er20    10.0   .     S
V5     V6    10.0   .     S
V5     V8    10.0   .     S
V6     Er24    10.0   .     S
V6     Er22    10.0   1_556     S
V6     Er19    10.0   1_556     S
V6     Er21    10.0   .     S
V6     V4    10.0   1_556     S
V6     V9    10.0   .     S
V7     Er23    10.0   .     S
V7     Er22    10.0   .     S
V7     Er19    10.0   .     S
V7     Er20    10.0   .     S
V7     V9    10.0   1_554     S
V7     V8    10.0   .     S
V7     Er10    10.0   .     S
V8     Er24    10.0   .     S
V8     Er23    10.0   .     S
V8     Er20    10.0   .     S
V8     Er21    10.0   .     S
V8     V9    10.0   .     S
V8     Er11    10.0   .     S
V9     Er22    10.0   1_556     S
V9     Er24    10.0   .     S
V9     Er21    10.0   .     S
V9     Er19    10.0   1_556     S
V9     V7    10.0   1_556     S
V9     Er12    10.0   .     S
Er10     V16    10.0   1_545     S
Er10     V17    10.0   1_545     S
Er10     V14    10.0   1_655     S
Er10     V13    10.0   1_655     S
Er11     V17    10.0   1_545     S
Er11     V18    10.0   1_545     S
Er11     V15    10.0   1_655     S
Er11     V14    10.0   1_655     S
Er12     V18    10.0   1_545     S
Er12     V16    10.0   1_546     S
Er12     V13    10.0   1_656     S
Er12     V15    10.0   1_655     S
V13     Er1    10.0   1_545     S
V13     Er3    10.0   1_544     S
V13     Er12    10.0   1_454     S
V13     Er10    10.0   1_455     S
V13     V14    10.0   .     S
V13     V15    10.0   1_554     S
V13     V16    10.0   1_445     S
V13     Er22    10.0   .     S
V14     Er2    10.0   1_545     S
V14     Er1    10.0   1_545     S
V14     Er10    10.0   1_455     S
V14     Er11    10.0   1_455     S
V14     V15    10.0   .     S
V14     V17    10.0   1_445     S
V14     Er23    10.0   .     S
V15     Er3    10.0   1_545     S
V15     Er2    10.0   1_545     S
V15     Er11    10.0   1_455     S
V15     Er12    10.0   1_455     S
V15     V13    10.0   1_556     S
V15     V18    10.0   1_445     S
V15     Er24    10.0   .     S
V16     Er3    10.0   1_654     S
V16     Er1    10.0   1_655     S
V16     Er10    10.0   1_565     S
V16     Er12    10.0   1_564     S
V16     V17    10.0   .     S
V16     V18    10.0   1_554     S
V16     V13    10.0   1_665     S
V16     Er19    10.0   .     S
V17     Er1    10.0   1_655     S
V17     Er2    10.0   1_655     S
V17     Er11    10.0   1_565     S
V17     Er10    10.0   1_565     S
V17     V18    10.0   .     S
V17     V14    10.0   1_665     S
V17     Er20    10.0   .     S
V18     Er2    10.0   1_655     S
V18     Er3    10.0   1_655     S
V18     Er12    10.0   1_565     S
V18     Er11    10.0   1_565     S
V18     V16    10.0   1_556     S
V18     V15    10.0   1_665     S
V18     Er21    10.0   .     S
Er19     V6    10.0   1_554     S
Er19     V9    10.0   1_554     S
Er22     V9    10.0   1_554     S
Er22     V6    10.0   1_554     S
