data_hst
_audit_creation_date              2019-12-31
_audit_creation_method            'Pymatgen'
_symmetry_space_group_name_H-M    'P1'
_symmetry_Int_Tables_number       1
loop_
_symmetry_equiv_pos_as_xyz
  x,y,z
_cell_length_a                    36.0214
_cell_length_b                    36.0214
_cell_length_c                    56.0868
_cell_angle_alpha                 90.0
_cell_angle_beta                 90.0
_cell_angle_gamma                 120.0
loop_
_atom_site_label
_atom_site_type_symbol
_atom_site_fract_x
_atom_site_fract_y
_atom_site_fract_z
V1     V     0.0   0.0   0.5
V2     V     1.0   0.5   0.5
V3     V     0.5   0.0   0.5
V4     V     0.5   0.5   0.5
Er5     Er     1.0   0.25   0.4225
Er6     Er     1.0   0.75   0.4225
Er7     Er     0.5   0.25   0.4225
Er8     Er     0.5   0.75   0.4225
Er9     Er     0.25   0.25   0.5775
Er10     Er     0.25   0.75   0.5775
Er11     Er     0.75   0.25   0.5775
Er12     Er     0.75   0.75   0.5775
V13     V     0.0   0.0   0.1667
V14     V     1.0   0.5   0.1667
V15     V     0.5   0.0   0.1667
V16     V     0.5   0.5   0.1667
Er17     Er     1.0   0.25   0.2442
Er18     Er     1.0   0.75   0.2442
Er19     Er     0.5   0.25   0.2442
Er20     Er     0.5   0.75   0.2442
Er21     Er     0.25   0.0   0.0891
Er22     Er     0.25   0.5   0.0891
Er23     Er     0.75   0.0   0.0891
Er24     Er     0.75   0.5   0.0891
V25     V     0.0   0.0   0.8333
V26     V     1.0   0.5   0.8333
V27     V     0.5   0.0   0.8333
V28     V     0.5   0.5   0.8333
Er29     Er     0.25   0.0   0.9108
Er30     Er     0.25   0.5   0.9108
Er31     Er     0.75   0.0   0.9108
Er32     Er     0.75   0.5   0.9108
Er33     Er     0.25   0.25   0.7558
Er34     Er     0.25   0.75   0.7558
Er35     Er     0.75   0.25   0.7558
Er36     Er     0.75   0.75   0.7558
loop_
_geom_bond_atom_site_label_1
_geom_bond_atom_site_label_2
_geom_bond_distance
_geom_bond_site_symmetry_2
_ccdc_geom_bond_type
V1     Er9    10.0   .     S
V1     Er12    10.0   1_445     S
V1     Er6    10.0   1_445     S
V1     Er5    10.0   1_455     S
V2     Er10    10.0   1_655     S
V2     Er11    10.0   .     S
V2     Er5    10.0   .     S
V2     Er6    10.0   .     S
V3     Er11    10.0   .     S
V3     Er10    10.0   1_545     S
V3     Er8    10.0   1_545     S
V3     Er7    10.0   .     S
V4     Er12    10.0   .     S
V4     Er9    10.0   .     S
V4     Er7    10.0   .     S
V4     Er8    10.0   .     S
Er5     V1    10.0   1_655     S
Er5     Er17    10.0   .     S
Er6     V1    10.0   1_665     S
Er6     Er18    10.0   .     S
Er7     Er19    10.0   .     S
Er8     V3    10.0   1_565     S
Er8     Er20    10.0   .     S
Er9     Er33    10.0   .     S
Er10     V2    10.0   1_455     S
Er10     V3    10.0   1_565     S
Er10     Er34    10.0   .     S
Er11     Er35    10.0   .     S
Er12     V1    10.0   1_665     S
Er12     Er36    10.0   .     S
V13     Er17    10.0   1_455     S
V13     Er18    10.0   1_445     S
V13     Er21    10.0   .     S
V13     Er23    10.0   1_455     S
V14     Er18    10.0   .     S
V14     Er17    10.0   .     S
V14     Er22    10.0   1_655     S
V14     Er24    10.0   .     S
V15     Er19    10.0   .     S
V15     Er20    10.0   1_545     S
V15     Er23    10.0   .     S
V15     Er21    10.0   .     S
V16     Er20    10.0   .     S
V16     Er19    10.0   .     S
V16     Er24    10.0   .     S
V16     Er22    10.0   .     S
Er17     V13    10.0   1_655     S
Er18     V13    10.0   1_665     S
Er20     V15    10.0   1_565     S
Er21     Er29    10.0   1_554     S
Er22     V14    10.0   1_455     S
Er22     Er30    10.0   1_554     S
Er23     V13    10.0   1_655     S
Er23     Er31    10.0   1_554     S
Er24     Er32    10.0   1_554     S
V25     Er29    10.0   .     S
V25     Er31    10.0   1_455     S
V25     Er33    10.0   .     S
V25     Er36    10.0   1_445     S
V26     Er30    10.0   1_655     S
V26     Er32    10.0   .     S
V26     Er34    10.0   1_655     S
V26     Er35    10.0   .     S
V27     Er31    10.0   .     S
V27     Er29    10.0   .     S
V27     Er35    10.0   .     S
V27     Er34    10.0   1_545     S
V28     Er32    10.0   .     S
V28     Er30    10.0   .     S
V28     Er36    10.0   .     S
V28     Er33    10.0   .     S
Er29     Er21    10.0   1_556     S
Er30     V26    10.0   1_455     S
Er30     Er22    10.0   1_556     S
Er31     V25    10.0   1_655     S
Er31     Er23    10.0   1_556     S
Er32     Er24    10.0   1_556     S
Er34     V26    10.0   1_455     S
Er34     V27    10.0   1_565     S
Er36     V25    10.0   1_665     S
