data_hua
_audit_creation_date              2019-12-31
_audit_creation_method            'Pymatgen'
_symmetry_space_group_name_H-M    'P1'
_symmetry_Int_Tables_number       1
loop_
_symmetry_equiv_pos_as_xyz
  x,y,z
_cell_length_a                    23.8444
_cell_length_b                    23.8444
_cell_length_c                    63.9962
_cell_angle_alpha                 90.0
_cell_angle_beta                 90.0
_cell_angle_gamma                 90.0
loop_
_atom_site_label
_atom_site_type_symbol
_atom_site_fract_x
_atom_site_fract_y
_atom_site_fract_z
V1     V     0.25   0.375   0.5378
V2     V     0.25   0.875   0.5378
V3     V     0.75   0.375   0.5378
V4     V     0.75   0.875   0.5378
V5     V     0.0   0.125   0.7122
V6     V     0.0   0.625   0.7122
V7     V     0.5   0.125   0.7122
V8     V     0.5   0.625   0.7122
Er9     Er     0.0   0.125   0.5731
Er10     Er     0.0   0.625   0.5731
Er11     Er     0.5   0.125   0.5731
Er12     Er     0.5   0.625   0.5731
Er13     Er     0.25   0.375   0.6769
Er14     Er     0.25   0.875   0.6769
Er15     Er     0.75   0.375   0.6769
Er16     Er     0.75   0.875   0.6769
V17     V     0.25   0.125   0.7878
V18     V     0.25   0.625   0.7878
V19     V     0.75   0.125   0.7878
V20     V     0.75   0.625   0.7878
V21     V     0.0   0.375   0.9622
V22     V     0.0   0.875   0.9622
V23     V     0.5   0.375   0.9622
V24     V     0.5   0.875   0.9622
Er25     Er     0.25   0.125   0.9269
Er26     Er     0.25   0.625   0.9269
Er27     Er     0.75   0.125   0.9269
Er28     Er     0.75   0.625   0.9269
Er29     Er     0.0   0.375   0.8231
Er30     Er     0.0   0.875   0.8231
Er31     Er     0.5   0.375   0.8231
Er32     Er     0.5   0.875   0.8231
V33     V     0.0   0.375   0.2878
V34     V     0.0   0.875   0.2878
V35     V     0.5   0.375   0.2878
V36     V     0.5   0.875   0.2878
V37     V     0.25   0.125   0.4622
V38     V     0.25   0.625   0.4622
V39     V     0.75   0.125   0.4622
V40     V     0.75   0.625   0.4622
Er41     Er     0.25   0.125   0.3231
Er42     Er     0.25   0.625   0.3231
Er43     Er     0.75   0.125   0.3231
Er44     Er     0.75   0.625   0.3231
Er45     Er     0.0   0.375   0.4269
Er46     Er     0.0   0.875   0.4269
Er47     Er     0.5   0.375   0.4269
Er48     Er     0.5   0.875   0.4269
V49     V     0.0   0.125   0.0378
V50     V     0.0   0.625   0.0378
V51     V     0.5   0.125   0.0378
V52     V     0.5   0.625   0.0378
V53     V     0.25   0.375   0.2122
V54     V     0.25   0.875   0.2122
V55     V     0.75   0.375   0.2122
V56     V     0.75   0.875   0.2122
Er57     Er     0.0   0.125   0.1769
Er58     Er     0.0   0.625   0.1769
Er59     Er     0.5   0.125   0.1769
Er60     Er     0.5   0.625   0.1769
Er61     Er     0.25   0.375   0.0731
Er62     Er     0.25   0.875   0.0731
Er63     Er     0.75   0.375   0.0731
Er64     Er     0.75   0.875   0.0731
loop_
_geom_bond_atom_site_label_1
_geom_bond_atom_site_label_2
_geom_bond_distance
_geom_bond_site_symmetry_2
_ccdc_geom_bond_type
V1     Er13    8.903   .     S
V1     Er47    9.268   .     S
V1     Er45    9.268   .     S
V2     Er14    8.903   .     S
V2     Er48    9.268   .     S
V2     Er46    9.268   .     S
V3     Er15    8.903   .     S
V3     Er45    9.268   1_655     S
V3     Er47    9.268   .     S
V4     Er16    8.903   .     S
V4     Er46    9.268   1_655     S
V4     Er48    9.268   .     S
V5     Er9    8.903   .     S
V5     Er29    9.268   .     S
V5     Er30    9.268   1_545     S
V6     Er10    8.903   .     S
V6     Er30    9.268   .     S
V6     Er29    9.268   .     S
V7     Er11    8.903   .     S
V7     Er31    9.268   .     S
V7     Er32    9.268   1_545     S
V8     Er12    8.903   .     S
V8     Er32    9.268   .     S
V8     Er31    9.268   .     S
Er9     Er45    11.09   .     S
Er9     Er46    11.09   1_545     S
Er9     V37    9.268   .     S
Er9     V39    9.268   1_455     S
Er9     Er14    10.736   1_545     S
Er9     Er16    10.736   1_445     S
Er9     Er15    10.736   1_455     S
Er9     Er13    10.736   .     S
Er10     Er46    11.09   .     S
Er10     Er45    11.09   .     S
Er10     V38    9.268   .     S
Er10     V40    9.268   1_455     S
Er10     Er13    10.736   .     S
Er10     Er15    10.736   1_455     S
Er10     Er16    10.736   1_455     S
Er10     Er14    10.736   .     S
Er11     Er47    11.09   .     S
Er11     Er48    11.09   1_545     S
Er11     V39    9.268   .     S
Er11     V37    9.268   .     S
Er11     Er16    10.736   1_545     S
Er11     Er14    10.736   1_545     S
Er11     Er13    10.736   .     S
Er11     Er15    10.736   .     S
Er12     Er48    11.09   .     S
Er12     Er47    11.09   .     S
Er12     V40    9.268   .     S
Er12     V38    9.268   .     S
Er12     Er15    10.736   .     S
Er12     Er13    10.736   .     S
Er12     Er14    10.736   .     S
Er12     Er16    10.736   .     S
Er13     Er29    11.09   .     S
Er13     Er31    11.09   .     S
Er13     V17    9.268   .     S
Er13     V18    9.268   .     S
Er14     Er30    11.09   .     S
Er14     Er32    11.09   .     S
Er14     V18    9.268   .     S
Er14     V17    9.268   1_565     S
Er14     Er9    10.736   1_565     S
Er14     Er11    10.736   1_565     S
Er15     Er31    11.09   .     S
Er15     Er29    11.09   1_655     S
Er15     V19    9.268   .     S
Er15     V20    9.268   .     S
Er15     Er10    10.736   1_655     S
Er15     Er9    10.736   1_655     S
Er16     Er32    11.09   .     S
Er16     Er30    11.09   1_655     S
Er16     V20    9.268   .     S
Er16     V19    9.268   1_565     S
Er16     Er11    10.736   1_565     S
Er16     Er9    10.736   1_665     S
Er16     Er10    10.736   1_655     S
V17     Er25    8.903   .     S
V17     Er14    9.268   1_545     S
V18     Er26    8.903   .     S
V19     Er27    8.903   .     S
V19     Er16    9.268   1_545     S
V20     Er28    8.903   .     S
V21     Er29    8.903   .     S
V21     Er63    9.268   1_456     S
V21     Er61    9.268   1_556     S
V22     Er30    8.903   .     S
V22     Er64    9.268   1_456     S
V22     Er62    9.268   1_556     S
V23     Er31    8.903   .     S
V23     Er61    9.268   1_556     S
V23     Er63    9.268   1_556     S
V24     Er32    8.903   .     S
V24     Er62    9.268   1_556     S
V24     Er64    9.268   1_556     S
Er25     Er61    11.09   1_556     S
Er25     Er62    11.09   1_546     S
Er25     V49    9.268   1_556     S
Er25     V51    9.268   1_556     S
Er25     Er30    10.736   1_545     S
Er25     Er32    10.736   1_545     S
Er25     Er31    10.736   .     S
Er25     Er29    10.736   .     S
Er26     Er62    11.09   1_556     S
Er26     Er61    11.09   1_556     S
Er26     V50    9.268   1_556     S
Er26     V52    9.268   1_556     S
Er26     Er29    10.736   .     S
Er26     Er31    10.736   .     S
Er26     Er32    10.736   .     S
Er26     Er30    10.736   .     S
Er27     Er63    11.09   1_556     S
Er27     Er64    11.09   1_546     S
Er27     V51    9.268   1_556     S
Er27     V49    9.268   1_656     S
Er27     Er32    10.736   1_545     S
Er27     Er30    10.736   1_645     S
Er27     Er29    10.736   1_655     S
Er27     Er31    10.736   .     S
Er28     Er64    11.09   1_556     S
Er28     Er63    11.09   1_556     S
Er28     V52    9.268   1_556     S
Er28     V50    9.268   1_656     S
Er28     Er31    10.736   .     S
Er28     Er29    10.736   1_655     S
Er28     Er30    10.736   1_655     S
Er28     Er32    10.736   .     S
Er29     Er15    11.09   1_455     S
Er29     Er28    10.736   1_455     S
Er29     Er27    10.736   1_455     S
Er30     Er16    11.09   1_455     S
Er30     V5    9.268   1_565     S
Er30     Er25    10.736   1_565     S
Er30     Er27    10.736   1_465     S
Er30     Er28    10.736   1_455     S
Er32     V7    9.268   1_565     S
Er32     Er27    10.736   1_565     S
Er32     Er25    10.736   1_565     S
V33     Er45    8.903   .     S
V33     Er58    9.268   .     S
V33     Er57    9.268   .     S
V34     Er46    8.903   .     S
V34     Er57    9.268   1_565     S
V34     Er58    9.268   .     S
V35     Er47    8.903   .     S
V35     Er60    9.268   .     S
V35     Er59    9.268   .     S
V36     Er48    8.903   .     S
V36     Er59    9.268   1_565     S
V36     Er60    9.268   .     S
V37     Er41    8.903   .     S
V38     Er42    8.903   .     S
V39     Er43    8.903   .     S
V39     Er9    9.268   1_655     S
V40     Er44    8.903   .     S
V40     Er10    9.268   1_655     S
Er41     Er59    11.09   .     S
Er41     Er57    11.09   .     S
Er41     V53    9.268   .     S
Er41     V54    9.268   1_545     S
Er41     Er46    10.736   1_545     S
Er41     Er48    10.736   1_545     S
Er41     Er47    10.736   .     S
Er41     Er45    10.736   .     S
Er42     Er60    11.09   .     S
Er42     Er58    11.09   .     S
Er42     V54    9.268   .     S
Er42     V53    9.268   .     S
Er42     Er45    10.736   .     S
Er42     Er47    10.736   .     S
Er42     Er48    10.736   .     S
Er42     Er46    10.736   .     S
Er43     Er57    11.09   1_655     S
Er43     Er59    11.09   .     S
Er43     V55    9.268   .     S
Er43     V56    9.268   1_545     S
Er43     Er48    10.736   1_545     S
Er43     Er46    10.736   1_645     S
Er43     Er45    10.736   1_655     S
Er43     Er47    10.736   .     S
Er44     Er58    11.09   1_655     S
Er44     Er60    11.09   .     S
Er44     V56    9.268   .     S
Er44     V55    9.268   .     S
Er44     Er47    10.736   .     S
Er44     Er45    10.736   1_655     S
Er44     Er46    10.736   1_655     S
Er44     Er48    10.736   .     S
Er45     V3    9.268   1_455     S
Er45     Er44    10.736   1_455     S
Er45     Er43    10.736   1_455     S
Er46     Er9    11.09   1_565     S
Er46     V4    9.268   1_455     S
Er46     Er41    10.736   1_565     S
Er46     Er43    10.736   1_465     S
Er46     Er44    10.736   1_455     S
Er48     Er11    11.09   1_565     S
Er48     Er43    10.736   1_565     S
Er48     Er41    10.736   1_565     S
V49     Er57    8.903   .     S
V49     Er25    9.268   1_554     S
V49     Er27    9.268   1_454     S
V50     Er58    8.903   .     S
V50     Er26    9.268   1_554     S
V50     Er28    9.268   1_454     S
V51     Er59    8.903   .     S
V51     Er27    9.268   1_554     S
V51     Er25    9.268   1_554     S
V52     Er60    8.903   .     S
V52     Er28    9.268   1_554     S
V52     Er26    9.268   1_554     S
V53     Er61    8.903   .     S
V54     Er62    8.903   .     S
V54     Er41    9.268   1_565     S
V55     Er63    8.903   .     S
V56     Er64    8.903   .     S
V56     Er43    9.268   1_565     S
Er57     Er43    11.09   1_455     S
Er57     V34    9.268   1_545     S
Er57     Er63    10.736   1_455     S
Er57     Er62    10.736   1_545     S
Er57     Er61    10.736   .     S
Er57     Er64    10.736   1_445     S
Er58     Er44    11.09   1_455     S
Er58     Er64    10.736   1_455     S
Er58     Er61    10.736   .     S
Er58     Er62    10.736   .     S
Er58     Er63    10.736   1_455     S
Er59     V36    9.268   1_545     S
Er59     Er61    10.736   .     S
Er59     Er64    10.736   1_545     S
Er59     Er63    10.736   .     S
Er59     Er62    10.736   1_545     S
Er60     Er62    10.736   .     S
Er60     Er63    10.736   .     S
Er60     Er64    10.736   .     S
Er60     Er61    10.736   .     S
Er61     Er25    11.09   1_554     S
Er61     Er26    11.09   1_554     S
Er61     V23    9.268   1_554     S
Er61     V21    9.268   1_554     S
Er62     Er26    11.09   1_554     S
Er62     Er25    11.09   1_564     S
Er62     V24    9.268   1_554     S
Er62     V22    9.268   1_554     S
Er62     Er57    10.736   1_565     S
Er62     Er59    10.736   1_565     S
Er63     Er27    11.09   1_554     S
Er63     Er28    11.09   1_554     S
Er63     V21    9.268   1_654     S
Er63     V23    9.268   1_554     S
Er63     Er57    10.736   1_655     S
Er63     Er58    10.736   1_655     S
Er64     Er28    11.09   1_554     S
Er64     Er27    11.09   1_564     S
Er64     V22    9.268   1_654     S
Er64     V24    9.268   1_554     S
Er64     Er58    10.736   1_655     S
Er64     Er59    10.736   1_565     S
Er64     Er57    10.736   1_665     S
