data_hww
_audit_creation_date              2019-12-31
_audit_creation_method            'Pymatgen'
_symmetry_space_group_name_H-M    'P1'
_symmetry_Int_Tables_number       1
loop_
_symmetry_equiv_pos_as_xyz
  x,y,z
_cell_length_a                    28.8949
_cell_length_b                    28.8949
_cell_length_c                    31.314
_cell_angle_alpha                 90.0
_cell_angle_beta                 90.0
_cell_angle_gamma                 90.0
loop_
_atom_site_label
_atom_site_type_symbol
_atom_site_fract_x
_atom_site_fract_y
_atom_site_fract_z
Er1     Er     0.5684   0.7222   0.0
Er2     Er     0.5684   0.7222   0.5
V3     V     0.8776   0.8776   0.0
V4     V     0.8776   0.8776   0.5
Er5     Er     0.7222   0.5684   0.0
Er6     Er     0.7222   0.5684   0.5
Er7     Er     0.4316   0.2778   0.0
Er8     Er     0.4316   0.2778   0.5
V9     V     0.1224   0.1224   0.0
V10     V     0.1224   0.1224   0.5
Er11     Er     0.2778   0.4316   0.0
Er12     Er     0.2778   0.4316   0.5
Er13     Er     0.7778   0.0684   0.25
Er14     Er     0.7778   0.0684   0.75
V15     V     0.6224   0.3776   0.25
V16     V     0.6224   0.3776   0.75
Er17     Er     0.9315   0.2222   0.25
Er18     Er     0.9315   0.2222   0.75
Er19     Er     0.0684   0.7778   0.25
Er20     Er     0.0684   0.7778   0.75
V21     V     0.3776   0.6224   0.25
V22     V     0.3776   0.6224   0.75
Er23     Er     0.2222   0.9315   0.25
Er24     Er     0.2222   0.9315   0.75
loop_
_geom_bond_atom_site_label_1
_geom_bond_atom_site_label_2
_geom_bond_distance
_geom_bond_site_symmetry_2
_ccdc_geom_bond_type
Er1     V22    10.0   1_554     S
Er1     V21    10.0   .     S
Er1     V3    10.0   .     S
Er2     V21    10.0   .     S
Er2     V22    10.0   .     S
Er2     V4    10.0   .     S
V3     Er5    10.0   .     S
V3     V9    10.0   1_665     S
V3     Er13    10.0   1_565     S
V3     Er14    10.0   1_564     S
V3     Er19    10.0   1_655     S
V3     Er20    10.0   1_654     S
V4     Er6    10.0   .     S
V4     V10    10.0   1_665     S
V4     Er14    10.0   1_565     S
V4     Er13    10.0   1_565     S
V4     Er20    10.0   1_655     S
V4     Er19    10.0   1_655     S
Er5     V15    10.0   .     S
Er5     V16    10.0   1_554     S
Er6     V16    10.0   .     S
Er6     V15    10.0   .     S
Er7     V16    10.0   1_554     S
Er7     V15    10.0   .     S
Er7     V9    10.0   .     S
Er8     V15    10.0   .     S
Er8     V16    10.0   .     S
Er8     V10    10.0   .     S
V9     Er11    10.0   .     S
V9     V3    10.0   1_445     S
V9     Er18    10.0   1_454     S
V9     Er17    10.0   1_455     S
V9     Er23    10.0   1_545     S
V9     Er24    10.0   1_544     S
V10     Er12    10.0   .     S
V10     V4    10.0   1_445     S
V10     Er17    10.0   1_455     S
V10     Er18    10.0   1_455     S
V10     Er24    10.0   1_545     S
V10     Er23    10.0   1_545     S
Er11     V22    10.0   1_554     S
Er11     V21    10.0   .     S
Er12     V21    10.0   .     S
Er12     V22    10.0   .     S
Er13     V3    10.0   1_545     S
Er13     V4    10.0   1_545     S
Er13     V15    10.0   .     S
Er14     V4    10.0   1_545     S
Er14     V3    10.0   1_546     S
Er14     V16    10.0   .     S
V15     Er17    10.0   .     S
V15     V21    10.0   .     S
V16     Er5    10.0   1_556     S
V16     Er7    10.0   1_556     S
V16     Er18    10.0   .     S
V16     V22    10.0   .     S
Er17     V10    10.0   1_655     S
Er17     V9    10.0   1_655     S
Er18     V9    10.0   1_656     S
Er18     V10    10.0   1_655     S
Er19     V3    10.0   1_455     S
Er19     V4    10.0   1_455     S
Er19     V21    10.0   .     S
Er20     V4    10.0   1_455     S
Er20     V3    10.0   1_456     S
Er20     V22    10.0   .     S
V21     Er23    10.0   .     S
V22     Er1    10.0   1_556     S
V22     Er11    10.0   1_556     S
V22     Er24    10.0   .     S
Er23     V9    10.0   1_565     S
Er23     V10    10.0   1_565     S
Er24     V10    10.0   1_565     S
Er24     V9    10.0   1_566     S
