data_hxg-d
_audit_creation_date              2019-12-31
_audit_creation_method            'Pymatgen'
_symmetry_space_group_name_H-M    'P1'
_symmetry_Int_Tables_number       1
loop_
_symmetry_equiv_pos_as_xyz
  x,y,z
_cell_length_a                    31.6986
_cell_length_b                    31.6986
_cell_length_c                    31.6986
_cell_angle_alpha                 90.0
_cell_angle_beta                 90.0
_cell_angle_gamma                 90.0
loop_
_atom_site_label
_atom_site_type_symbol
_atom_site_fract_x
_atom_site_fract_y
_atom_site_fract_z
V1     V     0.0833   0.0833   0.0833
V2     V     0.0833   0.0833   0.4167
V3     V     0.0833   0.0833   0.75
V4     V     0.0833   0.4167   0.0833
V5     V     0.0833   0.4167   0.4167
V6     V     0.0833   0.4167   0.75
V7     V     0.0833   0.75   0.0833
V8     V     0.0833   0.75   0.4167
V9     V     0.0833   0.75   0.75
V10     V     0.4167   0.0833   0.0833
V11     V     0.4167   0.0833   0.4167
V12     V     0.4167   0.0833   0.75
V13     V     0.4167   0.4167   0.0833
V14     V     0.4167   0.4167   0.4167
V15     V     0.4167   0.4167   0.75
V16     V     0.4167   0.75   0.0833
V17     V     0.4167   0.75   0.4167
V18     V     0.4167   0.75   0.75
V19     V     0.75   0.0833   0.0833
V20     V     0.75   0.0833   0.4167
V21     V     0.75   0.0833   0.75
V22     V     0.75   0.4167   0.0833
V23     V     0.75   0.4167   0.4167
V24     V     0.75   0.4167   0.75
V25     V     0.75   0.75   0.0833
V26     V     0.75   0.75   0.4167
V27     V     0.75   0.75   0.75
V28     V     0.25   0.25   0.25
V29     V     0.25   0.25   0.5833
V30     V     0.25   0.25   0.9167
V31     V     0.25   0.5833   0.25
V32     V     0.25   0.5833   0.5833
V33     V     0.25   0.5833   0.9167
V34     V     0.25   0.9167   0.25
V35     V     0.25   0.9167   0.5833
V36     V     0.25   0.9167   0.9167
V37     V     0.5833   0.25   0.25
V38     V     0.5833   0.25   0.5833
V39     V     0.5833   0.25   0.9167
V40     V     0.5833   0.5833   0.25
V41     V     0.5833   0.5833   0.5833
V42     V     0.5833   0.5833   0.9167
V43     V     0.5833   0.9167   0.25
V44     V     0.5833   0.9167   0.5833
V45     V     0.5833   0.9167   0.9167
V46     V     0.9167   0.25   0.25
V47     V     0.9167   0.25   0.5833
V48     V     0.9167   0.25   0.9167
V49     V     0.9167   0.5833   0.25
V50     V     0.9167   0.5833   0.5833
V51     V     0.9167   0.5833   0.9167
V52     V     0.9167   0.9167   0.25
V53     V     0.9167   0.9167   0.5833
V54     V     0.9167   0.9167   0.9167
loop_
_geom_bond_atom_site_label_1
_geom_bond_atom_site_label_2
_geom_bond_distance
_geom_bond_site_symmetry_2
_ccdc_geom_bond_type
V1     V2    10.566   .     S
V1     V3    10.566   1_554     S
V1     V10    10.566   .     S
V1     V19    10.566   1_455     S
V1     V4    10.566   .     S
V1     V7    10.566   1_545     S
V1     V30    9.151   1_554     S
V1     V34    9.151   1_545     S
V1     V54    9.151   1_444     S
V1     V46    9.151   1_455     S
V2     V3    10.566   .     S
V2     V11    10.566   .     S
V2     V20    10.566   1_455     S
V2     V5    10.566   .     S
V2     V8    10.566   1_545     S
V2     V28    9.151   .     S
V2     V35    9.151   1_545     S
V2     V52    9.151   1_445     S
V2     V47    9.151   1_455     S
V3     V1    10.566   1_556     S
V3     V12    10.566   .     S
V3     V21    10.566   1_455     S
V3     V6    10.566   .     S
V3     V9    10.566   1_545     S
V3     V29    9.151   .     S
V3     V36    9.151   1_545     S
V3     V53    9.151   1_445     S
V3     V48    9.151   1_455     S
V4     V5    10.566   .     S
V4     V6    10.566   1_554     S
V4     V13    10.566   .     S
V4     V22    10.566   1_455     S
V4     V7    10.566   .     S
V4     V33    9.151   1_554     S
V4     V28    9.151   .     S
V4     V48    9.151   1_454     S
V4     V49    9.151   1_455     S
V5     V6    10.566   .     S
V5     V14    10.566   .     S
V5     V23    10.566   1_455     S
V5     V8    10.566   .     S
V5     V31    9.151   .     S
V5     V29    9.151   .     S
V5     V46    9.151   1_455     S
V5     V50    9.151   1_455     S
V6     V4    10.566   1_556     S
V6     V15    10.566   .     S
V6     V24    10.566   1_455     S
V6     V9    10.566   .     S
V6     V32    9.151   .     S
V6     V30    9.151   .     S
V6     V47    9.151   1_455     S
V6     V51    9.151   1_455     S
V7     V8    10.566   .     S
V7     V9    10.566   1_554     S
V7     V16    10.566   .     S
V7     V25    10.566   1_455     S
V7     V1    10.566   1_565     S
V7     V36    9.151   1_554     S
V7     V31    9.151   .     S
V7     V51    9.151   1_454     S
V7     V52    9.151   1_455     S
V8     V9    10.566   .     S
V8     V17    10.566   .     S
V8     V26    10.566   1_455     S
V8     V2    10.566   1_565     S
V8     V34    9.151   .     S
V8     V32    9.151   .     S
V8     V49    9.151   1_455     S
V8     V53    9.151   1_455     S
V9     V7    10.566   1_556     S
V9     V18    10.566   .     S
V9     V27    10.566   1_455     S
V9     V3    10.566   1_565     S
V9     V35    9.151   .     S
V9     V33    9.151   .     S
V9     V50    9.151   1_455     S
V9     V54    9.151   1_455     S
V10     V11    10.566   .     S
V10     V12    10.566   1_554     S
V10     V19    10.566   .     S
V10     V13    10.566   .     S
V10     V16    10.566   1_545     S
V10     V39    9.151   1_554     S
V10     V43    9.151   1_545     S
V10     V36    9.151   1_544     S
V10     V28    9.151   .     S
V11     V12    10.566   .     S
V11     V20    10.566   .     S
V11     V14    10.566   .     S
V11     V17    10.566   1_545     S
V11     V37    9.151   .     S
V11     V44    9.151   1_545     S
V11     V34    9.151   1_545     S
V11     V29    9.151   .     S
V12     V10    10.566   1_556     S
V12     V21    10.566   .     S
V12     V15    10.566   .     S
V12     V18    10.566   1_545     S
V12     V38    9.151   .     S
V12     V45    9.151   1_545     S
V12     V35    9.151   1_545     S
V12     V30    9.151   .     S
V13     V14    10.566   .     S
V13     V15    10.566   1_554     S
V13     V22    10.566   .     S
V13     V16    10.566   .     S
V13     V42    9.151   1_554     S
V13     V37    9.151   .     S
V13     V30    9.151   1_554     S
V13     V31    9.151   .     S
V14     V15    10.566   .     S
V14     V23    10.566   .     S
V14     V17    10.566   .     S
V14     V40    9.151   .     S
V14     V38    9.151   .     S
V14     V28    9.151   .     S
V14     V32    9.151   .     S
V15     V13    10.566   1_556     S
V15     V24    10.566   .     S
V15     V18    10.566   .     S
V15     V41    9.151   .     S
V15     V39    9.151   .     S
V15     V29    9.151   .     S
V15     V33    9.151   .     S
V16     V17    10.566   .     S
V16     V18    10.566   1_554     S
V16     V25    10.566   .     S
V16     V10    10.566   1_565     S
V16     V45    9.151   1_554     S
V16     V40    9.151   .     S
V16     V33    9.151   1_554     S
V16     V34    9.151   .     S
V17     V18    10.566   .     S
V17     V26    10.566   .     S
V17     V11    10.566   1_565     S
V17     V43    9.151   .     S
V17     V41    9.151   .     S
V17     V31    9.151   .     S
V17     V35    9.151   .     S
V18     V16    10.566   1_556     S
V18     V27    10.566   .     S
V18     V12    10.566   1_565     S
V18     V44    9.151   .     S
V18     V42    9.151   .     S
V18     V32    9.151   .     S
V18     V36    9.151   .     S
V19     V20    10.566   .     S
V19     V21    10.566   1_554     S
V19     V1    10.566   1_655     S
V19     V22    10.566   .     S
V19     V25    10.566   1_545     S
V19     V48    9.151   1_554     S
V19     V52    9.151   1_545     S
V19     V45    9.151   1_544     S
V19     V37    9.151   .     S
V20     V21    10.566   .     S
V20     V2    10.566   1_655     S
V20     V23    10.566   .     S
V20     V26    10.566   1_545     S
V20     V46    9.151   .     S
V20     V53    9.151   1_545     S
V20     V43    9.151   1_545     S
V20     V38    9.151   .     S
V21     V19    10.566   1_556     S
V21     V3    10.566   1_655     S
V21     V24    10.566   .     S
V21     V27    10.566   1_545     S
V21     V47    9.151   .     S
V21     V54    9.151   1_545     S
V21     V44    9.151   1_545     S
V21     V39    9.151   .     S
V22     V23    10.566   .     S
V22     V24    10.566   1_554     S
V22     V4    10.566   1_655     S
V22     V25    10.566   .     S
V22     V51    9.151   1_554     S
V22     V46    9.151   .     S
V22     V39    9.151   1_554     S
V22     V40    9.151   .     S
V23     V24    10.566   .     S
V23     V5    10.566   1_655     S
V23     V26    10.566   .     S
V23     V49    9.151   .     S
V23     V47    9.151   .     S
V23     V37    9.151   .     S
V23     V41    9.151   .     S
V24     V22    10.566   1_556     S
V24     V6    10.566   1_655     S
V24     V27    10.566   .     S
V24     V50    9.151   .     S
V24     V48    9.151   .     S
V24     V38    9.151   .     S
V24     V42    9.151   .     S
V25     V26    10.566   .     S
V25     V27    10.566   1_554     S
V25     V7    10.566   1_655     S
V25     V19    10.566   1_565     S
V25     V54    9.151   1_554     S
V25     V49    9.151   .     S
V25     V42    9.151   1_554     S
V25     V43    9.151   .     S
V26     V27    10.566   .     S
V26     V8    10.566   1_655     S
V26     V20    10.566   1_565     S
V26     V52    9.151   .     S
V26     V50    9.151   .     S
V26     V40    9.151   .     S
V26     V44    9.151   .     S
V27     V25    10.566   1_556     S
V27     V9    10.566   1_655     S
V27     V21    10.566   1_565     S
V27     V53    9.151   .     S
V27     V51    9.151   .     S
V27     V41    9.151   .     S
V27     V45    9.151   .     S
V28     V30    10.566   1_554     S
V28     V29    10.566   .     S
V28     V34    10.566   1_545     S
V28     V31    10.566   .     S
V28     V46    10.566   1_455     S
V28     V37    10.566   .     S
V29     V30    10.566   .     S
V29     V35    10.566   1_545     S
V29     V32    10.566   .     S
V29     V47    10.566   1_455     S
V29     V38    10.566   .     S
V30     V28    10.566   1_556     S
V30     V36    10.566   1_545     S
V30     V33    10.566   .     S
V30     V48    10.566   1_455     S
V30     V39    10.566   .     S
V30     V1    9.151   1_556     S
V30     V13    9.151   1_556     S
V31     V33    10.566   1_554     S
V31     V32    10.566   .     S
V31     V34    10.566   .     S
V31     V49    10.566   1_455     S
V31     V40    10.566   .     S
V32     V33    10.566   .     S
V32     V35    10.566   .     S
V32     V50    10.566   1_455     S
V32     V41    10.566   .     S
V33     V31    10.566   1_556     S
V33     V36    10.566   .     S
V33     V51    10.566   1_455     S
V33     V42    10.566   .     S
V33     V4    9.151   1_556     S
V33     V16    9.151   1_556     S
V34     V36    10.566   1_554     S
V34     V35    10.566   .     S
V34     V28    10.566   1_565     S
V34     V52    10.566   1_455     S
V34     V43    10.566   .     S
V34     V1    9.151   1_565     S
V34     V11    9.151   1_565     S
V35     V36    10.566   .     S
V35     V29    10.566   1_565     S
V35     V53    10.566   1_455     S
V35     V44    10.566   .     S
V35     V2    9.151   1_565     S
V35     V12    9.151   1_565     S
V36     V34    10.566   1_556     S
V36     V30    10.566   1_565     S
V36     V54    10.566   1_455     S
V36     V45    10.566   .     S
V36     V7    9.151   1_556     S
V36     V3    9.151   1_565     S
V36     V10    9.151   1_566     S
V37     V39    10.566   1_554     S
V37     V38    10.566   .     S
V37     V43    10.566   1_545     S
V37     V40    10.566   .     S
V37     V46    10.566   .     S
V38     V39    10.566   .     S
V38     V44    10.566   1_545     S
V38     V41    10.566   .     S
V38     V47    10.566   .     S
V39     V37    10.566   1_556     S
V39     V45    10.566   1_545     S
V39     V42    10.566   .     S
V39     V48    10.566   .     S
V39     V10    9.151   1_556     S
V39     V22    9.151   1_556     S
V40     V42    10.566   1_554     S
V40     V41    10.566   .     S
V40     V43    10.566   .     S
V40     V49    10.566   .     S
V41     V42    10.566   .     S
V41     V44    10.566   .     S
V41     V50    10.566   .     S
V42     V40    10.566   1_556     S
V42     V45    10.566   .     S
V42     V51    10.566   .     S
V42     V13    9.151   1_556     S
V42     V25    9.151   1_556     S
V43     V45    10.566   1_554     S
V43     V44    10.566   .     S
V43     V37    10.566   1_565     S
V43     V52    10.566   .     S
V43     V10    9.151   1_565     S
V43     V20    9.151   1_565     S
V44     V45    10.566   .     S
V44     V38    10.566   1_565     S
V44     V53    10.566   .     S
V44     V11    9.151   1_565     S
V44     V21    9.151   1_565     S
V45     V43    10.566   1_556     S
V45     V39    10.566   1_565     S
V45     V54    10.566   .     S
V45     V16    9.151   1_556     S
V45     V12    9.151   1_565     S
V45     V19    9.151   1_566     S
V46     V48    10.566   1_554     S
V46     V47    10.566   .     S
V46     V52    10.566   1_545     S
V46     V49    10.566   .     S
V46     V28    10.566   1_655     S
V46     V5    9.151   1_655     S
V46     V1    9.151   1_655     S
V47     V48    10.566   .     S
V47     V53    10.566   1_545     S
V47     V50    10.566   .     S
V47     V29    10.566   1_655     S
V47     V6    9.151   1_655     S
V47     V2    9.151   1_655     S
V48     V46    10.566   1_556     S
V48     V54    10.566   1_545     S
V48     V51    10.566   .     S
V48     V30    10.566   1_655     S
V48     V19    9.151   1_556     S
V48     V4    9.151   1_656     S
V48     V3    9.151   1_655     S
V49     V51    10.566   1_554     S
V49     V50    10.566   .     S
V49     V52    10.566   .     S
V49     V31    10.566   1_655     S
V49     V8    9.151   1_655     S
V49     V4    9.151   1_655     S
V50     V51    10.566   .     S
V50     V53    10.566   .     S
V50     V32    10.566   1_655     S
V50     V9    9.151   1_655     S
V50     V5    9.151   1_655     S
V51     V49    10.566   1_556     S
V51     V54    10.566   .     S
V51     V33    10.566   1_655     S
V51     V22    9.151   1_556     S
V51     V7    9.151   1_656     S
V51     V6    9.151   1_655     S
V52     V54    10.566   1_554     S
V52     V53    10.566   .     S
V52     V46    10.566   1_565     S
V52     V34    10.566   1_655     S
V52     V19    9.151   1_565     S
V52     V2    9.151   1_665     S
V52     V7    9.151   1_655     S
V53     V54    10.566   .     S
V53     V47    10.566   1_565     S
V53     V35    10.566   1_655     S
V53     V20    9.151   1_565     S
V53     V3    9.151   1_665     S
V53     V8    9.151   1_655     S
V54     V52    10.566   1_556     S
V54     V48    10.566   1_565     S
V54     V36    10.566   1_655     S
V54     V25    9.151   1_556     S
V54     V21    9.151   1_565     S
V54     V1    9.151   1_666     S
V54     V9    9.151   1_655     S
