data_hyb
_audit_creation_date              2019-12-31
_audit_creation_method            'Pymatgen'
_symmetry_space_group_name_H-M    'P1'
_symmetry_Int_Tables_number       1
loop_
_symmetry_equiv_pos_as_xyz
  x,y,z
_cell_length_a                    37.3204
_cell_length_b                    37.3204
_cell_length_c                    32.6602
_cell_angle_alpha                 90.0
_cell_angle_beta                 90.0
_cell_angle_gamma                 120.0
loop_
_atom_site_label
_atom_site_type_symbol
_atom_site_fract_x
_atom_site_fract_y
_atom_site_fract_z
Er1     Er     0.244   0.488   0.375
Er2     Er     0.244   0.488   0.875
Er3     Er     0.512   0.756   0.375
Er4     Er     0.512   0.756   0.875
Er5     Er     0.756   0.244   0.125
Er6     Er     0.756   0.244   0.625
V7     V     0.0893   0.1786   0.375
V8     V     0.0893   0.1786   0.875
V9     V     0.9107   0.0893   0.125
V10     V     0.9107   0.0893   0.625
V11     V     0.1786   0.0893   0.125
V12     V     0.1786   0.0893   0.625
V13     V     0.0893   0.9107   0.375
V14     V     0.0893   0.9107   0.875
V15     V     0.8214   0.9107   0.375
V16     V     0.8214   0.9107   0.875
V17     V     0.9107   0.8214   0.125
V18     V     0.9107   0.8214   0.625
Er19     Er     0.756   0.512   0.125
Er20     Er     0.756   0.512   0.625
Er21     Er     0.244   0.756   0.375
Er22     Er     0.244   0.756   0.875
Er23     Er     0.488   0.244   0.125
Er24     Er     0.488   0.244   0.625
loop_
_geom_bond_atom_site_label_1
_geom_bond_atom_site_label_2
_geom_bond_distance
_geom_bond_site_symmetry_2
_ccdc_geom_bond_type
Er1     Er3    10.0   .     S
Er1     Er21    10.0   .     S
Er1     V7    10.0   .     S
Er2     Er4    10.0   .     S
Er2     Er22    10.0   .     S
Er2     V8    10.0   .     S
Er3     Er21    10.0   .     S
Er3     V15    10.0   .     S
Er4     Er22    10.0   .     S
Er4     V16    10.0   .     S
Er5     Er23    10.0   .     S
Er5     Er19    10.0   .     S
Er5     V9    10.0   .     S
Er6     Er24    10.0   .     S
Er6     Er20    10.0   .     S
Er6     V10    10.0   .     S
V7     V15    10.0   1_445     S
V7     V13    10.0   1_545     S
V7     V10    10.0   1_455     S
V7     V12    10.0   .     S
V7     V11    10.0   .     S
V7     V9    10.0   1_455     S
V8     V16    10.0   1_445     S
V8     V14    10.0   1_545     S
V8     V9    10.0   1_456     S
V8     V11    10.0   1_556     S
V8     V12    10.0   .     S
V8     V10    10.0   1_455     S
V9     V11    10.0   1_655     S
V9     V17    10.0   1_545     S
V9     V16    10.0   1_544     S
V9     V8    10.0   1_654     S
V9     V15    10.0   1_545     S
V9     V7    10.0   1_655     S
V10     V12    10.0   1_655     S
V10     V18    10.0   1_545     S
V10     V15    10.0   1_545     S
V10     V7    10.0   1_655     S
V10     V16    10.0   1_545     S
V10     V8    10.0   1_655     S
V11     Er23    10.0   .     S
V11     V9    10.0   1_455     S
V11     V14    10.0   1_544     S
V11     V8    10.0   1_554     S
V11     V13    10.0   1_545     S
V11     V17    10.0   1_445     S
V12     Er24    10.0   .     S
V12     V10    10.0   1_455     S
V12     V13    10.0   1_545     S
V12     V14    10.0   1_545     S
V12     V18    10.0   1_445     S
V13     V15    10.0   1_455     S
V13     V7    10.0   1_565     S
V13     V18    10.0   1_455     S
V13     V12    10.0   1_565     S
V13     V17    10.0   1_455     S
V13     V11    10.0   1_565     S
V13     Er21    10.0   .     S
V14     V16    10.0   1_455     S
V14     V8    10.0   1_565     S
V14     V17    10.0   1_456     S
V14     V11    10.0   1_566     S
V14     V18    10.0   1_455     S
V14     V12    10.0   1_565     S
V14     Er22    10.0   .     S
V15     V7    10.0   1_665     S
V15     V13    10.0   1_655     S
V15     V18    10.0   .     S
V15     V10    10.0   1_565     S
V15     V17    10.0   .     S
V15     V9    10.0   1_565     S
V16     V8    10.0   1_665     S
V16     V14    10.0   1_655     S
V16     V17    10.0   1_556     S
V16     V9    10.0   1_566     S
V16     V18    10.0   .     S
V16     V10    10.0   1_565     S
V17     V9    10.0   1_565     S
V17     V16    10.0   1_554     S
V17     V14    10.0   1_654     S
V17     V13    10.0   1_655     S
V17     V11    10.0   1_665     S
V17     Er19    10.0   .     S
V18     V10    10.0   1_565     S
V18     V13    10.0   1_655     S
V18     V14    10.0   1_655     S
V18     V12    10.0   1_665     S
V18     Er20    10.0   .     S
Er19     Er23    10.0   .     S
Er20     Er24    10.0   .     S
