data_hyc
_audit_creation_date              2019-12-31
_audit_creation_method            'Pymatgen'
_symmetry_space_group_name_H-M    'P1'
_symmetry_Int_Tables_number       1
loop_
_symmetry_equiv_pos_as_xyz
  x,y,z
_cell_length_a                    30.3902
_cell_length_b                    42.2034
_cell_length_c                    32.472
_cell_angle_alpha                 90.0
_cell_angle_beta                 90.0
_cell_angle_gamma                 90.0
loop_
_atom_site_label
_atom_site_type_symbol
_atom_site_fract_x
_atom_site_fract_y
_atom_site_fract_z
Ti1     Ti     0.0857   0.4138   0.2667
Ti2     Ti     0.0857   0.4138   0.7667
Ti3     Ti     0.4143   0.4138   0.2667
Ti4     Ti     0.4143   0.4138   0.7667
Er5     Er     0.25   0.5078   0.0285
Er6     Er     0.25   0.5078   0.5285
Ti7     Ti     0.0857   0.0862   0.0167
Ti8     Ti     0.0857   0.0862   0.5167
Ti9     Ti     0.4143   0.0862   0.0167
Ti10     Ti     0.4143   0.0862   0.5167
Er11     Er     0.25   0.9922   0.2785
Er12     Er     0.25   0.9922   0.7785
V13     V     0.5853   0.3185   0.0
V14     V     0.5853   0.3185   0.5
V15     V     0.9148   0.3185   0.0
V16     V     0.9148   0.3185   0.5
Ce17     Ce     0.75   0.3871   0.2507
Ce18     Ce     0.75   0.3871   0.7507
V19     V     0.9148   0.1815   0.25
V20     V     0.9148   0.1815   0.75
V21     V     0.5853   0.1815   0.25
V22     V     0.5853   0.1815   0.75
Ce23     Ce     0.75   0.1129   0.0007
Ce24     Ce     0.75   0.1129   0.5007
Ti25     Ti     0.9143   0.5862   0.2667
Ti26     Ti     0.9143   0.5862   0.7667
Ti27     Ti     0.5857   0.5862   0.2667
Ti28     Ti     0.5857   0.5862   0.7667
Er29     Er     0.75   0.4922   0.0285
Er30     Er     0.75   0.4922   0.5285
Ti31     Ti     0.9143   0.9138   0.0167
Ti32     Ti     0.9143   0.9138   0.5167
Ti33     Ti     0.5857   0.9138   0.0167
Ti34     Ti     0.5857   0.9138   0.5167
Er35     Er     0.75   0.0078   0.2785
Er36     Er     0.75   0.0078   0.7785
V37     V     0.4148   0.8185   0.25
V38     V     0.4148   0.8185   0.75
V39     V     0.0853   0.8185   0.25
V40     V     0.0853   0.8185   0.75
Ce41     Ce     0.25   0.8871   0.0007
Ce42     Ce     0.25   0.8871   0.5007
V43     V     0.4147   0.6815   0.0
V44     V     0.4147   0.6815   0.5
V45     V     0.0853   0.6815   0.0
V46     V     0.0853   0.6815   0.5
Ce47     Ce     0.25   0.6129   0.2507
Ce48     Ce     0.25   0.6129   0.7507
loop_
_geom_bond_atom_site_label_1
_geom_bond_atom_site_label_2
_geom_bond_distance
_geom_bond_site_symmetry_2
_ccdc_geom_bond_type
Ti1     Er5    10.025   .     S
Ti1     V16    10.027   1_455     S
Ti1     Ti3    9.987   .     S
Ti2     Er6    10.025   .     S
Ti2     V15    10.027   1_456     S
Ti2     Ti4    9.987   .     S
Ti3     Er5    10.025   .     S
Ti3     V14    10.027   .     S
Ti4     Er6    10.025   .     S
Ti4     V13    10.027   1_556     S
Er5     Ce48    10.054   1_554     S
Er6     Ce47    10.054   .     S
Ti7     Er12    10.025   1_544     S
Ti7     V19    10.027   1_455     S
Ti7     Ti9    9.987   .     S
Ti8     Er11    10.025   1_545     S
Ti8     V20    10.027   1_455     S
Ti8     Ti10    9.987   .     S
Ti9     Er12    10.025   1_544     S
Ti9     V21    10.027   .     S
Ti10     Er11    10.025   1_545     S
Ti10     V22    10.027   .     S
Er11     Ce41    10.054   .     S
Er11     Ti8    10.025   1_565     S
Er11     Ti10    10.025   1_565     S
Er12     Ce42    10.054   .     S
Er12     Ti7    10.025   1_566     S
Er12     Ti9    10.025   1_566     S
V13     Ce23    10.019   .     S
V13     V15    10.014   .     S
V13     Ti4    10.027   1_554     S
V13     V21    9.968   .     S
V13     Ce18    9.949   1_554     S
V13     V22    9.968   1_554     S
V13     Ce17    9.985   .     S
V14     Ce24    10.019   .     S
V14     V16    10.014   .     S
V14     V22    9.968   .     S
V14     Ce17    9.949   .     S
V14     V21    9.968   .     S
V14     Ce18    9.985   .     S
V15     Ce23    10.019   .     S
V15     Ti2    10.027   1_654     S
V15     V19    9.968   .     S
V15     Ce18    9.949   1_554     S
V15     V20    9.968   1_554     S
V15     Ce17    9.985   .     S
V16     Ce24    10.019   .     S
V16     Ti1    10.027   1_655     S
V16     V20    9.968   .     S
V16     Ce17    9.949   .     S
V16     V19    9.968   .     S
V16     Ce18    9.985   .     S
Ce17     Er30    10.054   .     S
Ce17     V21    10.019   .     S
Ce17     V19    10.019   .     S
Ce18     Er29    10.054   1_556     S
Ce18     V22    10.019   .     S
Ce18     V20    10.019   .     S
Ce18     V15    9.949   1_556     S
Ce18     V13    9.949   1_556     S
V19     V21    10.014   .     S
V19     Ti7    10.027   1_655     S
V19     Ce23    9.949   .     S
V19     Ce24    9.985   .     S
V20     V22    10.014   .     S
V20     Ti8    10.027   1_655     S
V20     V15    9.968   1_556     S
V20     Ce24    9.949   .     S
V20     Ce23    9.985   1_556     S
V21     Ce23    9.949   .     S
V21     Ce24    9.985   .     S
V22     V13    9.968   1_556     S
V22     Ce24    9.949   .     S
V22     Ce23    9.985   1_556     S
Ce23     Er35    10.054   .     S
Ce23     V20    9.985   1_554     S
Ce23     V22    9.985   1_554     S
Ce24     Er36    10.054   .     S
Ti25     Er29    10.025   .     S
Ti25     V46    10.027   1_655     S
Ti25     Ti27    9.987   .     S
Ti26     Er30    10.025   .     S
Ti26     V45    10.027   1_656     S
Ti26     Ti28    9.987   .     S
Ti27     Er29    10.025   .     S
Ti27     V44    10.027   .     S
Ti28     Er30    10.025   .     S
Ti28     V43    10.027   1_556     S
Er29     Ce18    10.054   1_554     S
Ti31     Er36    10.025   1_564     S
Ti31     V39    10.027   1_655     S
Ti31     Ti33    9.987   .     S
Ti32     Er35    10.025   1_565     S
Ti32     V40    10.027   1_655     S
Ti32     Ti34    9.987   .     S
Ti33     Er36    10.025   1_564     S
Ti33     V37    10.027   .     S
Ti34     Er35    10.025   1_565     S
Ti34     V38    10.027   .     S
Er35     Ti32    10.025   1_545     S
Er35     Ti34    10.025   1_545     S
Er36     Ti31    10.025   1_546     S
Er36     Ti33    10.025   1_546     S
V37     Ce47    10.019   .     S
V37     V39    10.014   .     S
V37     V44    9.968   .     S
V37     Ce41    9.949   .     S
V37     V43    9.968   .     S
V37     Ce42    9.985   .     S
V38     Ce48    10.019   .     S
V38     V40    10.014   .     S
V38     V43    9.968   1_556     S
V38     Ce42    9.949   .     S
V38     V44    9.968   .     S
V38     Ce41    9.985   1_556     S
V39     Ce47    10.019   .     S
V39     Ti31    10.027   1_455     S
V39     V46    9.968   .     S
V39     Ce41    9.949   .     S
V39     V45    9.968   .     S
V39     Ce42    9.985   .     S
V40     Ce48    10.019   .     S
V40     Ti32    10.027   1_455     S
V40     V45    9.968   1_556     S
V40     Ce42    9.949   .     S
V40     V46    9.968   .     S
V40     Ce41    9.985   1_556     S
Ce41     V45    10.019   .     S
Ce41     V43    10.019   .     S
Ce41     V40    9.985   1_554     S
Ce41     V38    9.985   1_554     S
Ce42     V46    10.019   .     S
Ce42     V44    10.019   .     S
V43     V45    10.014   .     S
V43     Ti28    10.027   1_554     S
V43     V38    9.968   1_554     S
V43     Ce48    9.949   1_554     S
V43     Ce47    9.985   .     S
V44     V46    10.014   .     S
V44     Ce47    9.949   .     S
V44     Ce48    9.985   .     S
V45     Ti26    10.027   1_454     S
V45     V40    9.968   1_554     S
V45     Ce48    9.949   1_554     S
V45     Ce47    9.985   .     S
V46     Ti25    10.027   1_455     S
V46     Ce47    9.949   .     S
V46     Ce48    9.985   .     S
Ce48     Er5    10.054   1_556     S
Ce48     V45    9.949   1_556     S
Ce48     V43    9.949   1_556     S
