data_hyd
_audit_creation_date              2019-12-31
_audit_creation_method            'Pymatgen'
_symmetry_space_group_name_H-M    'P1'
_symmetry_Int_Tables_number       1
loop_
_symmetry_equiv_pos_as_xyz
  x,y,z
_cell_length_a                    35.374
_cell_length_b                    55.3752
_cell_length_c                    32.6532
_cell_angle_alpha                 90.0
_cell_angle_beta                 90.0
_cell_angle_gamma                 90.0
loop_
_atom_site_label
_atom_site_type_symbol
_atom_site_fract_x
_atom_site_fract_y
_atom_site_fract_z
Ce1     Ce     0.6413   0.1398   0.1224
Ce2     Ce     0.6413   0.1398   0.6224
Ce3     Ce     0.3587   0.1398   0.1224
Ce4     Ce     0.3587   0.1398   0.6224
Ti5     Ti     0.5   0.2591   0.4507
Ti6     Ti     0.5   0.2591   0.9507
V7     V     0.1413   0.9479   0.0
V8     V     0.1413   0.9479   0.5
V9     V     0.8587   0.9479   0.0
V10     V     0.8587   0.9479   0.5
Er11     Er     0.0   0.8958   0.2501
Er12     Er     0.0   0.8958   0.7501
V13     V     0.1413   0.0521   0.25
V14     V     0.1413   0.0521   0.75
V15     V     0.8587   0.0521   0.25
V16     V     0.8587   0.0521   0.75
Er17     Er     0.0   0.1042   0.0001
Er18     Er     0.0   0.1042   0.5001
Ce19     Ce     0.6413   0.8602   0.3724
Ce20     Ce     0.6413   0.8602   0.8724
Ce21     Ce     0.3587   0.8602   0.3724
Ce22     Ce     0.3587   0.8602   0.8724
Ti23     Ti     0.5   0.7409   0.2007
Ti24     Ti     0.5   0.7409   0.7007
Ce25     Ce     0.8587   0.3602   0.3724
Ce26     Ce     0.8587   0.3602   0.8724
Ce27     Ce     0.1413   0.3602   0.3724
Ce28     Ce     0.1413   0.3602   0.8724
Ti29     Ti     0.0   0.2409   0.2007
Ti30     Ti     0.0   0.2409   0.7007
V31     V     0.3587   0.5521   0.25
V32     V     0.3587   0.5521   0.75
V33     V     0.6413   0.5521   0.25
V34     V     0.6413   0.5521   0.75
Er35     Er     0.5   0.6042   0.0001
Er36     Er     0.5   0.6042   0.5001
V37     V     0.3587   0.4479   0.0
V38     V     0.3587   0.4479   0.5
V39     V     0.6413   0.4479   0.0
V40     V     0.6413   0.4479   0.5
Er41     Er     0.5   0.3957   0.2501
Er42     Er     0.5   0.3957   0.7501
Ce43     Ce     0.8587   0.6398   0.1224
Ce44     Ce     0.8587   0.6398   0.6224
Ce45     Ce     0.1413   0.6398   0.1224
Ce46     Ce     0.1413   0.6398   0.6224
Ti47     Ti     0.0   0.7591   0.4507
Ti48     Ti     0.0   0.7591   0.9507
loop_
_geom_bond_atom_site_label_1
_geom_bond_atom_site_label_2
_geom_bond_distance
_geom_bond_site_symmetry_2
_ccdc_geom_bond_type
Ce1     Ti6    10.002   1_554     S
Ce1     Ce3    9.998   .     S
Ce1     V15    10.004   .     S
Ce2     Ti5    10.002   .     S
Ce2     Ce4    9.998   .     S
Ce2     V16    10.004   .     S
Ce3     Ti6    10.002   1_554     S
Ce3     V13    10.004   .     S
Ce4     Ti5    10.002   .     S
Ce4     V14    10.004   .     S
Ti5     Er41    10.008   .     S
Ti6     Ce3    10.002   1_556     S
Ti6     Ce1    10.002   1_556     S
Ti6     Er42    10.008   .     S
V7     V14    9.998   1_564     S
V7     Er12    9.995   1_554     S
V7     V9    9.997   1_455     S
V7     Er11    10.001   .     S
V7     V13    9.998   1_565     S
V7     Er17    9.998   1_565     S
V7     Ce22    10.004   1_554     S
V8     V13    9.998   1_565     S
V8     Er11    9.995   .     S
V8     V10    9.997   1_455     S
V8     Er12    10.001   .     S
V8     V14    9.998   1_565     S
V8     Er18    9.998   1_565     S
V8     Ce21    10.004   .     S
V9     V16    9.998   1_564     S
V9     Er12    9.995   1_654     S
V9     V7    9.997   1_655     S
V9     Er11    10.001   1_655     S
V9     V15    9.998   1_565     S
V9     Er17    9.998   1_665     S
V9     Ce20    10.004   1_554     S
V10     V15    9.998   1_565     S
V10     Er11    9.995   1_655     S
V10     V8    9.997   1_655     S
V10     Er12    10.001   1_655     S
V10     V16    9.998   1_565     S
V10     Er18    9.998   1_665     S
V10     Ce19    10.004   .     S
Er11     V13    9.998   1_565     S
Er11     V15    9.998   1_465     S
Er11     V10    9.995   1_455     S
Er11     V9    10.001   1_455     S
Er11     Ti47    10.008   .     S
Er12     V14    9.998   1_565     S
Er12     V16    9.998   1_465     S
Er12     V7    9.995   1_556     S
Er12     V9    9.995   1_456     S
Er12     V10    10.001   1_455     S
Er12     Ti48    10.008   .     S
V13     V8    9.998   1_545     S
V13     Er11    9.998   1_545     S
V13     V7    9.998   1_545     S
V13     Er17    9.995   .     S
V13     V15    9.997   1_455     S
V13     Er18    10.001   .     S
V14     V7    9.998   1_546     S
V14     Er12    9.998   1_545     S
V14     V8    9.998   1_545     S
V14     Er18    9.995   .     S
V14     V16    9.997   1_455     S
V14     Er17    10.001   1_556     S
V15     V10    9.998   1_545     S
V15     Er11    9.998   1_645     S
V15     V9    9.998   1_545     S
V15     Er17    9.995   1_655     S
V15     V13    9.997   1_655     S
V15     Er18    10.001   1_655     S
V16     V9    9.998   1_546     S
V16     Er12    9.998   1_645     S
V16     V10    9.998   1_545     S
V16     Er18    9.995   1_655     S
V16     V14    9.997   1_655     S
V16     Er17    10.001   1_656     S
Er17     V9    9.998   1_445     S
Er17     V7    9.998   1_545     S
Er17     V15    9.995   1_455     S
Er17     V14    10.001   1_554     S
Er17     V16    10.001   1_454     S
Er17     Ti29    10.008   .     S
Er18     V10    9.998   1_445     S
Er18     V8    9.998   1_545     S
Er18     V16    9.995   1_455     S
Er18     V15    10.001   1_455     S
Er18     Ti30    10.008   .     S
Ce19     Ti23    10.002   .     S
Ce19     Ce21    9.998   .     S
Ce20     Ti24    10.002   .     S
Ce20     Ce22    9.998   .     S
Ce20     V9    10.004   1_556     S
Ce21     Ti23    10.002   .     S
Ce22     Ti24    10.002   .     S
Ce22     V7    10.004   1_556     S
Ti23     Er35    10.008   .     S
Ti24     Er36    10.008   .     S
Ce25     Ti29    10.002   1_655     S
Ce25     Ce27    9.998   1_655     S
Ce25     V40    10.004   .     S
Ce26     Ti30    10.002   1_655     S
Ce26     Ce28    9.998   1_655     S
Ce26     V39    10.004   1_556     S
Ce27     Ti29    10.002   .     S
Ce27     Ce25    9.998   1_455     S
Ce27     V38    10.004   .     S
Ce28     Ti30    10.002   .     S
Ce28     Ce26    9.998   1_455     S
Ce28     V37    10.004   1_556     S
Ti29     Ce25    10.002   1_455     S
Ti30     Ce26    10.002   1_455     S
V31     V37    9.998   .     S
V31     Er35    9.995   .     S
V31     V33    9.997   .     S
V31     Er36    10.001   .     S
V31     V38    9.998   .     S
V31     Er41    9.998   .     S
V31     Ce45    10.004   .     S
V32     V38    9.998   .     S
V32     Er36    9.995   .     S
V32     V34    9.997   .     S
V32     Er35    10.001   1_556     S
V32     V37    9.998   1_556     S
V32     Er42    9.998   .     S
V32     Ce46    10.004   .     S
V33     V39    9.998   .     S
V33     Er35    9.995   .     S
V33     Er36    10.001   .     S
V33     V40    9.998   .     S
V33     Er41    9.998   .     S
V33     Ce43    10.004   .     S
V34     V40    9.998   .     S
V34     Er36    9.995   .     S
V34     Er35    10.001   1_556     S
V34     V39    9.998   1_556     S
V34     Er42    9.998   .     S
V34     Ce44    10.004   .     S
Er35     V39    9.998   .     S
Er35     V37    9.998   .     S
Er35     V34    10.001   1_554     S
Er35     V32    10.001   1_554     S
Er36     V40    9.998   .     S
Er36     V38    9.998   .     S
V37     Ce28    10.004   1_554     S
V37     V32    9.998   1_554     S
V37     Er42    9.995   1_554     S
V37     V39    9.997   .     S
V37     Er41    10.001   .     S
V38     Er41    9.995   .     S
V38     V40    9.997   .     S
V38     Er42    10.001   .     S
V39     Ce26    10.004   1_554     S
V39     V34    9.998   1_554     S
V39     Er42    9.995   1_554     S
V39     Er41    10.001   .     S
V40     Er41    9.995   .     S
V40     Er42    10.001   .     S
Er42     V37    9.995   1_556     S
Er42     V39    9.995   1_556     S
Ce43     Ti48    10.002   1_654     S
Ce43     Ce45    9.998   1_655     S
Ce44     Ti47    10.002   1_655     S
Ce44     Ce46    9.998   1_655     S
Ce45     Ti48    10.002   1_554     S
Ce45     Ce43    9.998   1_455     S
Ce46     Ti47    10.002   .     S
Ce46     Ce44    9.998   1_455     S
Ti47     Ce44    10.002   1_455     S
Ti48     Ce43    10.002   1_456     S
Ti48     Ce45    10.002   1_556     S
