data_ilc
_audit_creation_date              2019-12-31
_audit_creation_method            'Pymatgen'
_symmetry_space_group_name_H-M    'P1'
_symmetry_Int_Tables_number       1
loop_
_symmetry_equiv_pos_as_xyz
  x,y,z
_cell_length_a                    25.8198
_cell_length_b                    25.8198
_cell_length_c                    30.0
_cell_angle_alpha                 90.0
_cell_angle_beta                 90.0
_cell_angle_gamma                 120.0
loop_
_atom_site_label
_atom_site_type_symbol
_atom_site_fract_x
_atom_site_fract_y
_atom_site_fract_z
V1     V     0.3333   0.1667   0.1111
V2     V     0.3333   0.1667   0.4444
V3     V     0.3333   0.1667   0.7778
V4     V     0.3333   0.6667   0.1111
V5     V     0.3333   0.6667   0.4444
V6     V     0.3333   0.6667   0.7778
V7     V     0.8333   0.1667   0.1111
V8     V     0.8333   0.1667   0.4444
V9     V     0.8333   0.1667   0.7778
V10     V     0.8333   0.6667   0.1111
V11     V     0.8333   0.6667   0.4444
V12     V     0.8333   0.6667   0.7778
V13     V     0.1667   0.3333   0.2222
V14     V     0.1667   0.3333   0.5556
V15     V     0.1667   0.3333   0.8889
V16     V     0.1667   0.8333   0.2222
V17     V     0.1667   0.8333   0.5556
V18     V     0.1667   0.8333   0.8889
V19     V     0.6667   0.3333   0.2222
V20     V     0.6667   0.3333   0.5556
V21     V     0.6667   0.3333   0.8889
V22     V     0.6667   0.8333   0.2222
V23     V     0.6667   0.8333   0.5556
V24     V     0.6667   0.8333   0.8889
V25     V     0.0   0.0   0.0
V26     V     0.0   0.0   0.3333
V27     V     0.0   0.0   0.6667
V28     V     1.0   0.5   0.0
V29     V     1.0   0.5   0.3333
V30     V     1.0   0.5   0.6667
V31     V     0.5   0.0   0.0
V32     V     0.5   0.0   0.3333
V33     V     0.5   0.0   0.6667
V34     V     0.5   0.5   0.0
V35     V     0.5   0.5   0.3333
V36     V     0.5   0.5   0.6667
loop_
_geom_bond_atom_site_label_1
_geom_bond_atom_site_label_2
_geom_bond_distance
_geom_bond_site_symmetry_2
_ccdc_geom_bond_type
V1     V15    10.0   1_554     S
V1     V35    10.0   .     S
V1     V26    10.0   .     S
V1     V21    10.0   1_554     S
V1     V18    10.0   1_544     S
V1     V32    10.0   .     S
V1     V2    10.0   .     S
V1     V3    10.0   1_554     S
V2     V13    10.0   .     S
V2     V36    10.0   .     S
V2     V27    10.0   .     S
V2     V19    10.0   .     S
V2     V16    10.0   1_545     S
V2     V33    10.0   .     S
V2     V3    10.0   .     S
V3     V14    10.0   .     S
V3     V34    10.0   1_556     S
V3     V25    10.0   1_556     S
V3     V20    10.0   .     S
V3     V17    10.0   1_545     S
V3     V31    10.0   1_556     S
V3     V1    10.0   1_556     S
V4     V18    10.0   1_554     S
V4     V32    10.0   1_565     S
V4     V29    10.0   1_455     S
V4     V24    10.0   1_554     S
V4     V15    10.0   1_554     S
V4     V35    10.0   .     S
V4     V5    10.0   .     S
V4     V6    10.0   1_554     S
V5     V16    10.0   .     S
V5     V33    10.0   1_565     S
V5     V30    10.0   1_455     S
V5     V22    10.0   .     S
V5     V13    10.0   .     S
V5     V36    10.0   .     S
V5     V6    10.0   .     S
V6     V17    10.0   .     S
V6     V31    10.0   1_566     S
V6     V28    10.0   1_456     S
V6     V23    10.0   .     S
V6     V14    10.0   .     S
V6     V34    10.0   1_556     S
V6     V4    10.0   1_556     S
V7     V21    10.0   1_554     S
V7     V29    10.0   .     S
V7     V32    10.0   .     S
V7     V15    10.0   1_654     S
V7     V24    10.0   1_544     S
V7     V26    10.0   1_655     S
V7     V8    10.0   .     S
V7     V9    10.0   1_554     S
V8     V19    10.0   .     S
V8     V30    10.0   .     S
V8     V33    10.0   .     S
V8     V13    10.0   1_655     S
V8     V22    10.0   1_545     S
V8     V27    10.0   1_655     S
V8     V9    10.0   .     S
V9     V20    10.0   .     S
V9     V28    10.0   1_556     S
V9     V31    10.0   1_556     S
V9     V14    10.0   1_655     S
V9     V23    10.0   1_545     S
V9     V25    10.0   1_656     S
V9     V7    10.0   1_556     S
V10     V24    10.0   1_554     S
V10     V26    10.0   1_665     S
V10     V35    10.0   .     S
V10     V18    10.0   1_654     S
V10     V21    10.0   1_554     S
V10     V29    10.0   .     S
V10     V11    10.0   .     S
V10     V12    10.0   1_554     S
V11     V22    10.0   .     S
V11     V27    10.0   1_665     S
V11     V36    10.0   .     S
V11     V16    10.0   1_655     S
V11     V19    10.0   .     S
V11     V30    10.0   .     S
V11     V12    10.0   .     S
V12     V23    10.0   .     S
V12     V25    10.0   1_666     S
V12     V34    10.0   1_556     S
V12     V17    10.0   1_655     S
V12     V20    10.0   .     S
V12     V28    10.0   1_556     S
V12     V10    10.0   1_556     S
V13     V34    10.0   .     S
V13     V25    10.0   .     S
V13     V8    10.0   1_455     S
V13     V28    10.0   1_455     S
V13     V15    10.0   1_554     S
V13     V14    10.0   .     S
V14     V35    10.0   .     S
V14     V26    10.0   .     S
V14     V9    10.0   1_455     S
V14     V29    10.0   1_455     S
V14     V15    10.0   .     S
V15     V1    10.0   1_556     S
V15     V36    10.0   .     S
V15     V27    10.0   .     S
V15     V7    10.0   1_456     S
V15     V4    10.0   1_556     S
V15     V30    10.0   1_455     S
V15     V13    10.0   1_556     S
V16     V31    10.0   1_565     S
V16     V28    10.0   1_455     S
V16     V11    10.0   1_455     S
V16     V2    10.0   1_565     S
V16     V25    10.0   1_565     S
V16     V18    10.0   1_554     S
V16     V17    10.0   .     S
V17     V32    10.0   1_565     S
V17     V29    10.0   1_455     S
V17     V12    10.0   1_455     S
V17     V3    10.0   1_565     S
V17     V26    10.0   1_565     S
V17     V18    10.0   .     S
V18     V4    10.0   1_556     S
V18     V33    10.0   1_565     S
V18     V30    10.0   1_455     S
V18     V10    10.0   1_456     S
V18     V1    10.0   1_566     S
V18     V27    10.0   1_565     S
V18     V16    10.0   1_556     S
V19     V28    10.0   .     S
V19     V31    10.0   .     S
V19     V34    10.0   .     S
V19     V21    10.0   1_554     S
V19     V20    10.0   .     S
V20     V29    10.0   .     S
V20     V32    10.0   .     S
V20     V35    10.0   .     S
V20     V21    10.0   .     S
V21     V7    10.0   1_556     S
V21     V30    10.0   .     S
V21     V33    10.0   .     S
V21     V1    10.0   1_556     S
V21     V10    10.0   1_556     S
V21     V36    10.0   .     S
V21     V19    10.0   1_556     S
V22     V25    10.0   1_665     S
V22     V34    10.0   .     S
V22     V8    10.0   1_565     S
V22     V31    10.0   1_565     S
V22     V24    10.0   1_554     S
V22     V23    10.0   .     S
V23     V26    10.0   1_665     S
V23     V35    10.0   .     S
V23     V9    10.0   1_565     S
V23     V32    10.0   1_565     S
V23     V24    10.0   .     S
V24     V10    10.0   1_556     S
V24     V27    10.0   1_665     S
V24     V36    10.0   .     S
V24     V4    10.0   1_556     S
V24     V7    10.0   1_566     S
V24     V33    10.0   1_565     S
V24     V22    10.0   1_556     S
V25     V12    10.0   1_444     S
V25     V3    10.0   1_554     S
V25     V22    10.0   1_445     S
V25     V9    10.0   1_454     S
V25     V16    10.0   1_545     S
V25     V26    10.0   .     S
V25     V27    10.0   1_554     S
V26     V10    10.0   1_445     S
V26     V23    10.0   1_445     S
V26     V7    10.0   1_455     S
V26     V17    10.0   1_545     S
V26     V27    10.0   .     S
V27     V11    10.0   1_445     S
V27     V24    10.0   1_445     S
V27     V8    10.0   1_455     S
V27     V18    10.0   1_545     S
V27     V25    10.0   1_556     S
V28     V9    10.0   1_554     S
V28     V6    10.0   1_654     S
V28     V16    10.0   1_655     S
V28     V12    10.0   1_554     S
V28     V13    10.0   1_655     S
V28     V29    10.0   .     S
V28     V30    10.0   1_554     S
V29     V4    10.0   1_655     S
V29     V17    10.0   1_655     S
V29     V14    10.0   1_655     S
V29     V30    10.0   .     S
V30     V5    10.0   1_655     S
V30     V18    10.0   1_655     S
V30     V15    10.0   1_655     S
V30     V28    10.0   1_556     S
V31     V6    10.0   1_544     S
V31     V9    10.0   1_554     S
V31     V16    10.0   1_545     S
V31     V3    10.0   1_554     S
V31     V22    10.0   1_545     S
V31     V32    10.0   .     S
V31     V33    10.0   1_554     S
V32     V4    10.0   1_545     S
V32     V17    10.0   1_545     S
V32     V23    10.0   1_545     S
V32     V33    10.0   .     S
V33     V5    10.0   1_545     S
V33     V18    10.0   1_545     S
V33     V24    10.0   1_545     S
V33     V31    10.0   1_556     S
V34     V3    10.0   1_554     S
V34     V12    10.0   1_554     S
V34     V6    10.0   1_554     S
V34     V35    10.0   .     S
V34     V36    10.0   1_554     S
V35     V36    10.0   .     S
V36     V34    10.0   1_556     S
