data_ild
_audit_creation_date              2019-12-31
_audit_creation_method            'Pymatgen'
_symmetry_space_group_name_H-M    'P1'
_symmetry_Int_Tables_number       1
loop_
_symmetry_equiv_pos_as_xyz
  x,y,z
_cell_length_a                    33.5124
_cell_length_b                    33.5124
_cell_length_c                    24.088
_cell_angle_alpha                 90.0
_cell_angle_beta                 90.0
_cell_angle_gamma                 120.0
loop_
_atom_site_label
_atom_site_type_symbol
_atom_site_fract_x
_atom_site_fract_y
_atom_site_fract_z
V1     V     0.0   0.0   0.0
V2     V     0.0   0.0   0.2
V3     V     0.0   0.0   0.4
V4     V     0.0   0.0   0.6
V5     V     0.0   0.0   0.8
V6     V     0.0   0.5   0.0
V7     V     0.0   0.5   0.2
V8     V     0.0   0.5   0.4
V9     V     0.0   0.5   0.6
V10     V     0.0   0.5   0.8
V11     V     0.5   0.0   0.0
V12     V     0.5   0.0   0.2
V13     V     0.5   0.0   0.4
V14     V     0.5   0.0   0.6
V15     V     0.5   0.0   0.8
V16     V     0.5   0.5   0.0
V17     V     0.5   0.5   0.2
V18     V     0.5   0.5   0.4
V19     V     0.5   0.5   0.6
V20     V     0.5   0.5   0.8
V21     V     0.3333   0.1667   0.0667
V22     V     0.3333   0.1667   0.2667
V23     V     0.3333   0.1667   0.4667
V24     V     0.3333   0.1667   0.6667
V25     V     0.3333   0.1667   0.8667
V26     V     0.3333   0.6667   0.0667
V27     V     0.3333   0.6667   0.2667
V28     V     0.3333   0.6667   0.4667
V29     V     0.3333   0.6667   0.6667
V30     V     0.3333   0.6667   0.8667
V31     V     0.8333   0.1667   0.0667
V32     V     0.8333   0.1667   0.2667
V33     V     0.8333   0.1667   0.4667
V34     V     0.8333   0.1667   0.6667
V35     V     0.8333   0.1667   0.8667
V36     V     0.8333   0.6667   0.0667
V37     V     0.8333   0.6667   0.2667
V38     V     0.8333   0.6667   0.4667
V39     V     0.8333   0.6667   0.6667
V40     V     0.8333   0.6667   0.8667
V41     V     0.1667   0.3333   0.1333
V42     V     0.1667   0.3333   0.3333
V43     V     0.1667   0.3333   0.5333
V44     V     0.1667   0.3333   0.7333
V45     V     0.1667   0.3333   0.9333
V46     V     0.1667   0.8333   0.1333
V47     V     0.1667   0.8333   0.3333
V48     V     0.1667   0.8333   0.5333
V49     V     0.1667   0.8333   0.7333
V50     V     0.1667   0.8333   0.9333
V51     V     0.6667   0.3333   0.1333
V52     V     0.6667   0.3333   0.3333
V53     V     0.6667   0.3333   0.5333
V54     V     0.6667   0.3333   0.7333
V55     V     0.6667   0.3333   0.9333
V56     V     0.6667   0.8333   0.1333
V57     V     0.6667   0.8333   0.3333
V58     V     0.6667   0.8333   0.5333
V59     V     0.6667   0.8333   0.7333
V60     V     0.6667   0.8333   0.9333
loop_
_geom_bond_atom_site_label_1
_geom_bond_atom_site_label_2
_geom_bond_distance
_geom_bond_site_symmetry_2
_ccdc_geom_bond_type
V1     V56    10.193   1_445     S
V1     V40    10.193   1_444     S
V1     V25    10.193   1_554     S
V1     V41    10.193   .     S
V1     V35    10.193   1_454     S
V1     V46    10.193   1_545     S
V1     V60    9.807   1_444     S
V1     V36    9.807   1_445     S
V1     V21    9.807   .     S
V1     V45    9.807   1_554     S
V1     V31    9.807   1_455     S
V1     V50    9.807   1_544     S
V2     V57    10.193   1_445     S
V2     V36    10.193   1_445     S
V2     V21    10.193   .     S
V2     V42    10.193   .     S
V2     V31    10.193   1_455     S
V2     V47    10.193   1_545     S
V2     V56    9.807   1_445     S
V2     V37    9.807   1_445     S
V2     V22    9.807   .     S
V2     V41    9.807   .     S
V2     V32    9.807   1_455     S
V2     V46    9.807   1_545     S
V3     V58    10.193   1_445     S
V3     V37    10.193   1_445     S
V3     V22    10.193   .     S
V3     V43    10.193   .     S
V3     V32    10.193   1_455     S
V3     V48    10.193   1_545     S
V3     V57    9.807   1_445     S
V3     V38    9.807   1_445     S
V3     V23    9.807   .     S
V3     V42    9.807   .     S
V3     V33    9.807   1_455     S
V3     V47    9.807   1_545     S
V4     V59    10.193   1_445     S
V4     V38    10.193   1_445     S
V4     V23    10.193   .     S
V4     V44    10.193   .     S
V4     V33    10.193   1_455     S
V4     V49    10.193   1_545     S
V4     V58    9.807   1_445     S
V4     V39    9.807   1_445     S
V4     V24    9.807   .     S
V4     V43    9.807   .     S
V4     V34    9.807   1_455     S
V4     V48    9.807   1_545     S
V5     V60    10.193   1_445     S
V5     V39    10.193   1_445     S
V5     V24    10.193   .     S
V5     V45    10.193   .     S
V5     V34    10.193   1_455     S
V5     V50    10.193   1_545     S
V5     V59    9.807   1_445     S
V5     V40    9.807   1_445     S
V5     V25    9.807   .     S
V5     V44    9.807   .     S
V5     V35    9.807   1_455     S
V5     V49    9.807   1_545     S
V6     V51    10.193   1_455     S
V6     V35    10.193   1_454     S
V6     V30    10.193   1_554     S
V6     V46    10.193   .     S
V6     V40    10.193   1_454     S
V6     V41    10.193   .     S
V6     V55    9.807   1_454     S
V6     V31    9.807   1_455     S
V6     V26    9.807   .     S
V6     V50    9.807   1_554     S
V6     V36    9.807   1_455     S
V6     V45    9.807   1_554     S
V7     V52    10.193   1_455     S
V7     V31    10.193   1_455     S
V7     V26    10.193   .     S
V7     V47    10.193   .     S
V7     V36    10.193   1_455     S
V7     V42    10.193   .     S
V7     V51    9.807   1_455     S
V7     V32    9.807   1_455     S
V7     V27    9.807   .     S
V7     V46    9.807   .     S
V7     V37    9.807   1_455     S
V7     V41    9.807   .     S
V8     V53    10.193   1_455     S
V8     V32    10.193   1_455     S
V8     V27    10.193   .     S
V8     V48    10.193   .     S
V8     V37    10.193   1_455     S
V8     V43    10.193   .     S
V8     V52    9.807   1_455     S
V8     V33    9.807   1_455     S
V8     V28    9.807   .     S
V8     V47    9.807   .     S
V8     V38    9.807   1_455     S
V8     V42    9.807   .     S
V9     V54    10.193   1_455     S
V9     V33    10.193   1_455     S
V9     V28    10.193   .     S
V9     V49    10.193   .     S
V9     V38    10.193   1_455     S
V9     V44    10.193   .     S
V9     V53    9.807   1_455     S
V9     V34    9.807   1_455     S
V9     V29    9.807   .     S
V9     V48    9.807   .     S
V9     V39    9.807   1_455     S
V9     V43    9.807   .     S
V10     V55    10.193   1_455     S
V10     V34    10.193   1_455     S
V10     V29    10.193   .     S
V10     V50    10.193   .     S
V10     V39    10.193   1_455     S
V10     V45    10.193   .     S
V10     V54    9.807   1_455     S
V10     V35    9.807   1_455     S
V10     V30    9.807   .     S
V10     V49    9.807   .     S
V10     V40    9.807   1_455     S
V10     V44    9.807   .     S
V11     V46    10.193   1_545     S
V11     V30    10.193   1_544     S
V11     V35    10.193   1_554     S
V11     V51    10.193   .     S
V11     V25    10.193   1_554     S
V11     V56    10.193   1_545     S
V11     V50    9.807   1_544     S
V11     V26    9.807   1_545     S
V11     V31    9.807   .     S
V11     V55    9.807   1_554     S
V11     V21    9.807   .     S
V11     V60    9.807   1_544     S
V12     V47    10.193   1_545     S
V12     V26    10.193   1_545     S
V12     V31    10.193   .     S
V12     V52    10.193   .     S
V12     V21    10.193   .     S
V12     V57    10.193   1_545     S
V12     V46    9.807   1_545     S
V12     V27    9.807   1_545     S
V12     V32    9.807   .     S
V12     V51    9.807   .     S
V12     V22    9.807   .     S
V12     V56    9.807   1_545     S
V13     V48    10.193   1_545     S
V13     V27    10.193   1_545     S
V13     V32    10.193   .     S
V13     V53    10.193   .     S
V13     V22    10.193   .     S
V13     V58    10.193   1_545     S
V13     V47    9.807   1_545     S
V13     V28    9.807   1_545     S
V13     V33    9.807   .     S
V13     V52    9.807   .     S
V13     V23    9.807   .     S
V13     V57    9.807   1_545     S
V14     V49    10.193   1_545     S
V14     V28    10.193   1_545     S
V14     V33    10.193   .     S
V14     V54    10.193   .     S
V14     V23    10.193   .     S
V14     V59    10.193   1_545     S
V14     V48    9.807   1_545     S
V14     V29    9.807   1_545     S
V14     V34    9.807   .     S
V14     V53    9.807   .     S
V14     V24    9.807   .     S
V14     V58    9.807   1_545     S
V15     V50    10.193   1_545     S
V15     V29    10.193   1_545     S
V15     V34    10.193   .     S
V15     V55    10.193   .     S
V15     V24    10.193   .     S
V15     V60    10.193   1_545     S
V15     V49    9.807   1_545     S
V15     V30    9.807   1_545     S
V15     V35    9.807   .     S
V15     V54    9.807   .     S
V15     V25    9.807   .     S
V15     V59    9.807   1_545     S
V16     V41    10.193   .     S
V16     V25    10.193   1_554     S
V16     V40    10.193   1_554     S
V16     V56    10.193   .     S
V16     V30    10.193   1_554     S
V16     V51    10.193   .     S
V16     V45    9.807   1_554     S
V16     V21    9.807   .     S
V16     V36    9.807   .     S
V16     V60    9.807   1_554     S
V16     V26    9.807   .     S
V16     V55    9.807   1_554     S
V17     V42    10.193   .     S
V17     V21    10.193   .     S
V17     V36    10.193   .     S
V17     V57    10.193   .     S
V17     V26    10.193   .     S
V17     V52    10.193   .     S
V17     V41    9.807   .     S
V17     V22    9.807   .     S
V17     V37    9.807   .     S
V17     V56    9.807   .     S
V17     V27    9.807   .     S
V17     V51    9.807   .     S
V18     V43    10.193   .     S
V18     V22    10.193   .     S
V18     V37    10.193   .     S
V18     V58    10.193   .     S
V18     V27    10.193   .     S
V18     V53    10.193   .     S
V18     V42    9.807   .     S
V18     V23    9.807   .     S
V18     V38    9.807   .     S
V18     V57    9.807   .     S
V18     V28    9.807   .     S
V18     V52    9.807   .     S
V19     V44    10.193   .     S
V19     V23    10.193   .     S
V19     V38    10.193   .     S
V19     V59    10.193   .     S
V19     V28    10.193   .     S
V19     V54    10.193   .     S
V19     V43    9.807   .     S
V19     V24    9.807   .     S
V19     V39    9.807   .     S
V19     V58    9.807   .     S
V19     V29    9.807   .     S
V19     V53    9.807   .     S
V20     V45    10.193   .     S
V20     V24    10.193   .     S
V20     V39    10.193   .     S
V20     V60    10.193   .     S
V20     V29    10.193   .     S
V20     V55    10.193   .     S
V20     V44    9.807   .     S
V20     V25    9.807   .     S
V20     V40    9.807   .     S
V20     V59    9.807   .     S
V20     V30    9.807   .     S
V20     V54    9.807   .     S
V21     V45    10.193   1_554     S
V21     V50    10.193   1_544     S
V21     V55    10.193   1_554     S
V21     V41    9.807   .     S
V21     V46    9.807   1_545     S
V21     V51    9.807   .     S
V22     V41    10.193   .     S
V22     V46    10.193   1_545     S
V22     V51    10.193   .     S
V22     V42    9.807   .     S
V22     V47    9.807   1_545     S
V22     V52    9.807   .     S
V23     V42    10.193   .     S
V23     V47    10.193   1_545     S
V23     V52    10.193   .     S
V23     V43    9.807   .     S
V23     V48    9.807   1_545     S
V23     V53    9.807   .     S
V24     V43    10.193   .     S
V24     V48    10.193   1_545     S
V24     V53    10.193   .     S
V24     V44    9.807   .     S
V24     V49    9.807   1_545     S
V24     V54    9.807   .     S
V25     V44    10.193   .     S
V25     V16    10.193   1_556     S
V25     V1    10.193   1_556     S
V25     V49    10.193   1_545     S
V25     V54    10.193   .     S
V25     V11    10.193   1_556     S
V25     V45    9.807   .     S
V25     V50    9.807   1_545     S
V25     V55    9.807   .     S
V26     V50    10.193   1_554     S
V26     V12    10.193   1_565     S
V26     V45    10.193   1_554     S
V26     V60    10.193   1_554     S
V26     V46    9.807   .     S
V26     V11    9.807   1_565     S
V26     V41    9.807   .     S
V26     V56    9.807   .     S
V27     V46    10.193   .     S
V27     V13    10.193   1_565     S
V27     V41    10.193   .     S
V27     V56    10.193   .     S
V27     V47    9.807   .     S
V27     V12    9.807   1_565     S
V27     V42    9.807   .     S
V27     V57    9.807   .     S
V28     V47    10.193   .     S
V28     V14    10.193   1_565     S
V28     V42    10.193   .     S
V28     V57    10.193   .     S
V28     V48    9.807   .     S
V28     V13    9.807   1_565     S
V28     V43    9.807   .     S
V28     V58    9.807   .     S
V29     V48    10.193   .     S
V29     V15    10.193   1_565     S
V29     V43    10.193   .     S
V29     V58    10.193   .     S
V29     V49    9.807   .     S
V29     V14    9.807   1_565     S
V29     V44    9.807   .     S
V29     V59    9.807   .     S
V30     V49    10.193   .     S
V30     V11    10.193   1_566     S
V30     V6    10.193   1_556     S
V30     V44    10.193   .     S
V30     V59    10.193   .     S
V30     V16    10.193   1_556     S
V30     V50    9.807   .     S
V30     V15    9.807   1_565     S
V30     V45    9.807   .     S
V30     V60    9.807   .     S
V31     V55    10.193   1_554     S
V31     V7    10.193   1_655     S
V31     V60    10.193   1_544     S
V31     V45    10.193   1_654     S
V31     V2    10.193   1_655     S
V31     V51    9.807   .     S
V31     V6    9.807   1_655     S
V31     V56    9.807   1_545     S
V31     V41    9.807   1_655     S
V31     V1    9.807   1_655     S
V32     V51    10.193   .     S
V32     V8    10.193   1_655     S
V32     V56    10.193   1_545     S
V32     V41    10.193   1_655     S
V32     V3    10.193   1_655     S
V32     V52    9.807   .     S
V32     V7    9.807   1_655     S
V32     V57    9.807   1_545     S
V32     V42    9.807   1_655     S
V32     V2    9.807   1_655     S
V33     V52    10.193   .     S
V33     V9    10.193   1_655     S
V33     V57    10.193   1_545     S
V33     V42    10.193   1_655     S
V33     V4    10.193   1_655     S
V33     V53    9.807   .     S
V33     V8    9.807   1_655     S
V33     V58    9.807   1_545     S
V33     V43    9.807   1_655     S
V33     V3    9.807   1_655     S
V34     V53    10.193   .     S
V34     V10    10.193   1_655     S
V34     V58    10.193   1_545     S
V34     V43    10.193   1_655     S
V34     V5    10.193   1_655     S
V34     V54    9.807   .     S
V34     V9    9.807   1_655     S
V34     V59    9.807   1_545     S
V34     V44    9.807   1_655     S
V34     V4    9.807   1_655     S
V35     V54    10.193   .     S
V35     V6    10.193   1_656     S
V35     V11    10.193   1_556     S
V35     V59    10.193   1_545     S
V35     V44    10.193   1_655     S
V35     V1    10.193   1_656     S
V35     V55    9.807   .     S
V35     V10    9.807   1_655     S
V35     V60    9.807   1_545     S
V35     V45    9.807   1_655     S
V35     V5    9.807   1_655     S
V36     V60    10.193   1_554     S
V36     V2    10.193   1_665     S
V36     V55    10.193   1_554     S
V36     V50    10.193   1_654     S
V36     V7    10.193   1_655     S
V36     V56    9.807   .     S
V36     V1    9.807   1_665     S
V36     V51    9.807   .     S
V36     V46    9.807   1_655     S
V36     V6    9.807   1_655     S
V37     V56    10.193   .     S
V37     V3    10.193   1_665     S
V37     V51    10.193   .     S
V37     V46    10.193   1_655     S
V37     V8    10.193   1_655     S
V37     V57    9.807   .     S
V37     V2    9.807   1_665     S
V37     V52    9.807   .     S
V37     V47    9.807   1_655     S
V37     V7    9.807   1_655     S
V38     V57    10.193   .     S
V38     V4    10.193   1_665     S
V38     V52    10.193   .     S
V38     V47    10.193   1_655     S
V38     V9    10.193   1_655     S
V38     V58    9.807   .     S
V38     V3    9.807   1_665     S
V38     V53    9.807   .     S
V38     V48    9.807   1_655     S
V38     V8    9.807   1_655     S
V39     V58    10.193   .     S
V39     V5    10.193   1_665     S
V39     V53    10.193   .     S
V39     V48    10.193   1_655     S
V39     V10    10.193   1_655     S
V39     V59    9.807   .     S
V39     V4    9.807   1_665     S
V39     V54    9.807   .     S
V39     V49    9.807   1_655     S
V39     V9    9.807   1_655     S
V40     V59    10.193   .     S
V40     V1    10.193   1_666     S
V40     V16    10.193   1_556     S
V40     V54    10.193   .     S
V40     V49    10.193   1_655     S
V40     V6    10.193   1_656     S
V40     V60    9.807   .     S
V40     V5    9.807   1_665     S
V40     V55    9.807   .     S
V40     V50    9.807   1_655     S
V40     V10    9.807   1_655     S
V41     V32    10.193   1_455     S
V41     V31    9.807   1_455     S
V42     V33    10.193   1_455     S
V42     V32    9.807   1_455     S
V43     V34    10.193   1_455     S
V43     V33    9.807   1_455     S
V44     V35    10.193   1_455     S
V44     V34    9.807   1_455     S
V45     V21    10.193   1_556     S
V45     V26    10.193   1_556     S
V45     V31    10.193   1_456     S
V45     V16    9.807   1_556     S
V45     V1    9.807   1_556     S
V45     V35    9.807   1_455     S
V45     V6    9.807   1_556     S
V46     V11    10.193   1_565     S
V46     V22    10.193   1_565     S
V46     V37    10.193   1_455     S
V46     V1    10.193   1_565     S
V46     V12    9.807   1_565     S
V46     V21    9.807   1_565     S
V46     V36    9.807   1_455     S
V46     V2    9.807   1_565     S
V47     V12    10.193   1_565     S
V47     V23    10.193   1_565     S
V47     V38    10.193   1_455     S
V47     V2    10.193   1_565     S
V47     V13    9.807   1_565     S
V47     V22    9.807   1_565     S
V47     V37    9.807   1_455     S
V47     V3    9.807   1_565     S
V48     V13    10.193   1_565     S
V48     V24    10.193   1_565     S
V48     V39    10.193   1_455     S
V48     V3    10.193   1_565     S
V48     V14    9.807   1_565     S
V48     V23    9.807   1_565     S
V48     V38    9.807   1_455     S
V48     V4    9.807   1_565     S
V49     V14    10.193   1_565     S
V49     V25    10.193   1_565     S
V49     V40    10.193   1_455     S
V49     V4    10.193   1_565     S
V49     V15    9.807   1_565     S
V49     V24    9.807   1_565     S
V49     V39    9.807   1_455     S
V49     V5    9.807   1_565     S
V50     V26    10.193   1_556     S
V50     V15    10.193   1_565     S
V50     V21    10.193   1_566     S
V50     V36    10.193   1_456     S
V50     V5    10.193   1_565     S
V50     V11    9.807   1_566     S
V50     V6    9.807   1_556     S
V50     V25    9.807   1_565     S
V50     V40    9.807   1_455     S
V50     V1    9.807   1_566     S
V51     V6    10.193   1_655     S
V51     V7    9.807   1_655     S
V52     V7    10.193   1_655     S
V52     V8    9.807   1_655     S
V53     V8    10.193   1_655     S
V53     V9    9.807   1_655     S
V54     V9    10.193   1_655     S
V54     V10    9.807   1_655     S
V55     V31    10.193   1_556     S
V55     V10    10.193   1_655     S
V55     V36    10.193   1_556     S
V55     V21    10.193   1_556     S
V55     V6    9.807   1_656     S
V55     V11    9.807   1_556     S
V55     V16    9.807   1_556     S
V56     V1    10.193   1_665     S
V56     V32    10.193   1_565     S
V56     V11    10.193   1_565     S
V56     V2    9.807   1_665     S
V56     V31    9.807   1_565     S
V56     V12    9.807   1_565     S
V57     V2    10.193   1_665     S
V57     V33    10.193   1_565     S
V57     V12    10.193   1_565     S
V57     V3    9.807   1_665     S
V57     V32    9.807   1_565     S
V57     V13    9.807   1_565     S
V58     V3    10.193   1_665     S
V58     V34    10.193   1_565     S
V58     V13    10.193   1_565     S
V58     V4    9.807   1_665     S
V58     V33    9.807   1_565     S
V58     V14    9.807   1_565     S
V59     V4    10.193   1_665     S
V59     V35    10.193   1_565     S
V59     V14    10.193   1_565     S
V59     V5    9.807   1_665     S
V59     V34    9.807   1_565     S
V59     V15    9.807   1_565     S
V60     V36    10.193   1_556     S
V60     V5    10.193   1_665     S
V60     V31    10.193   1_566     S
V60     V26    10.193   1_556     S
V60     V15    10.193   1_565     S
V60     V1    9.807   1_666     S
V60     V16    9.807   1_556     S
V60     V35    9.807   1_565     S
V60     V11    9.807   1_566     S
