data_ins
_audit_creation_date              2019-12-31
_audit_creation_method            'Pymatgen'
_symmetry_space_group_name_H-M    'P1'
_symmetry_Int_Tables_number       1
loop_
_symmetry_equiv_pos_as_xyz
  x,y,z
_cell_length_a                    26.3262
_cell_length_b                    38.0377
_cell_length_c                    32.1296
_cell_angle_alpha                 90.0
_cell_angle_beta                 90.0
_cell_angle_gamma                 90.0
loop_
_atom_site_label
_atom_site_type_symbol
_atom_site_fract_x
_atom_site_fract_y
_atom_site_fract_z
Er1     Er     0.1849   0.2798   0.25
Er2     Er     0.1849   0.2798   0.75
V3     V     0.0015   0.6314   0.0
V4     V     0.0015   0.6314   0.5
V5     V     0.9985   0.3686   0.0
V6     V     0.9985   0.3686   0.5
Er7     Er     0.8151   0.7202   0.25
Er8     Er     0.8151   0.7202   0.75
Er9     Er     0.3151   0.7797   0.0
Er10     Er     0.3151   0.7797   0.5
V11     V     0.5015   0.8686   0.25
V12     V     0.5015   0.8686   0.75
V13     V     0.4985   0.1314   0.25
V14     V     0.4985   0.1314   0.75
Er15     Er     0.6849   0.2202   0.0
Er16     Er     0.6849   0.2202   0.5
loop_
_geom_bond_atom_site_label_1
_geom_bond_atom_site_label_2
_geom_bond_distance
_geom_bond_site_symmetry_2
_ccdc_geom_bond_type
Er1     V13    10.0   .     S
Er1     V5    10.0   1_455     S
Er1     V6    10.0   1_455     S
Er2     V14    10.0   .     S
Er2     V6    10.0   1_455     S
Er2     V5    10.0   1_456     S
V3     V5    10.0   1_455     S
V3     Er7    10.0   1_455     S
V3     Er8    10.0   1_454     S
V3     Er9    10.0   .     S
V4     V6    10.0   1_455     S
V4     Er8    10.0   1_455     S
V4     Er7    10.0   1_455     S
V4     Er10    10.0   .     S
V5     Er1    10.0   1_655     S
V5     Er2    10.0   1_654     S
V5     V3    10.0   1_655     S
V5     Er15    10.0   .     S
V6     Er2    10.0   1_655     S
V6     Er1    10.0   1_655     S
V6     V4    10.0   1_655     S
V6     Er16    10.0   .     S
Er7     V11    10.0   .     S
Er7     V3    10.0   1_655     S
Er7     V4    10.0   1_655     S
Er8     V12    10.0   .     S
Er8     V4    10.0   1_655     S
Er8     V3    10.0   1_656     S
Er9     V11    10.0   .     S
Er9     V12    10.0   1_554     S
Er10     V12    10.0   .     S
Er10     V11    10.0   .     S
V11     V13    10.0   1_565     S
V12     Er9    10.0   1_556     S
V12     V14    10.0   1_565     S
V13     V11    10.0   1_545     S
V13     Er15    10.0   .     S
V13     Er16    10.0   .     S
V14     V12    10.0   1_545     S
V14     Er16    10.0   .     S
V14     Er15    10.0   1_556     S
Er15     V14    10.0   1_554     S
