data_isc
_audit_creation_date              2019-12-31
_audit_creation_method            'Pymatgen'
_symmetry_space_group_name_H-M    'P1'
_symmetry_Int_Tables_number       1
loop_
_symmetry_equiv_pos_as_xyz
  x,y,z
_cell_length_a                    39.9334
_cell_length_b                    84.9047
_cell_length_c                    21.1108
_cell_angle_alpha                 90.0
_cell_angle_beta                 90.0
_cell_angle_gamma                 90.0
loop_
_atom_site_label
_atom_site_type_symbol
_atom_site_fract_x
_atom_site_fract_y
_atom_site_fract_z
V1     V     0.3991   0.0594   0.3901
V2     V     0.8991   0.0594   0.3901
V3     V     0.1009   0.0594   0.1098
V4     V     0.6009   0.0594   0.1098
Er5     Er     0.25   0.0286   0.75
Er6     Er     0.75   0.0286   0.75
V7     V     0.3991   0.9406   0.8902
V8     V     0.8991   0.9406   0.8902
V9     V     0.1009   0.9406   0.6098
V10     V     0.6009   0.9406   0.6098
Er11     Er     0.25   0.9714   0.25
Er12     Er     0.75   0.9714   0.25
Ti13     Ti     0.0934   0.6742   0.0923
Ti14     Ti     0.5934   0.6742   0.0923
Ti15     Ti     0.4066   0.6742   0.4077
Ti16     Ti     0.9066   0.6742   0.4077
Ce17     Ce     0.0   0.7427   0.75
Ce18     Ce     0.5   0.7427   0.75
Ti19     Ti     0.3434   0.8258   0.9077
Ti20     Ti     0.8434   0.8258   0.9077
Ti21     Ti     0.1566   0.8258   0.5923
Ti22     Ti     0.6566   0.8258   0.5923
Ce23     Ce     0.25   0.7573   0.25
Ce24     Ce     0.75   0.7573   0.25
Ti25     Ti     0.4066   0.3258   0.9077
Ti26     Ti     0.9066   0.3258   0.9077
Ti27     Ti     0.0934   0.3258   0.5923
Ti28     Ti     0.5934   0.3258   0.5923
Ce29     Ce     0.0   0.2573   0.25
Ce30     Ce     0.5   0.2573   0.25
Ti31     Ti     0.1566   0.1742   0.0923
Ti32     Ti     0.6566   0.1742   0.0923
Ti33     Ti     0.3434   0.1742   0.4077
Ti34     Ti     0.8434   0.1742   0.4077
Ce35     Ce     0.25   0.2427   0.75
Ce36     Ce     0.75   0.2427   0.75
V37     V     0.3509   0.4406   0.8902
V38     V     0.8509   0.4406   0.8902
V39     V     0.1491   0.4406   0.6098
V40     V     0.6491   0.4406   0.6098
Er41     Er     0.0   0.4714   0.25
Er42     Er     0.5   0.4714   0.25
V43     V     0.3509   0.5594   0.3901
V44     V     0.8509   0.5594   0.3901
V45     V     0.1491   0.5594   0.1098
V46     V     0.6491   0.5594   0.1098
Er47     Er     0.0   0.5286   0.75
Er48     Er     0.5   0.5286   0.75
loop_
_geom_bond_atom_site_label_1
_geom_bond_atom_site_label_2
_geom_bond_distance
_geom_bond_site_symmetry_2
_ccdc_geom_bond_type
V1     Er5    10.0   .     S
V1     Er11    10.0   1_545     S
V1     V4    10.0   .     S
V1     Ti33    10.0   .     S
V2     Er6    10.0   .     S
V2     Er12    10.0   1_545     S
V2     V3    10.0   1_655     S
V2     Ti34    10.0   .     S
V3     Er5    10.0   1_554     S
V3     Er11    10.0   1_545     S
V3     V2    10.0   1_455     S
V3     Ti31    10.0   .     S
V4     Er6    10.0   1_554     S
V4     Er12    10.0   1_545     S
V4     Ti32    10.0   .     S
Er5     V3    10.0   1_556     S
Er5     V7    10.0   1_545     S
Er5     V9    10.0   1_545     S
Er6     V4    10.0   1_556     S
Er6     V8    10.0   1_545     S
Er6     V10    10.0   1_545     S
V7     Er11    10.0   1_556     S
V7     Er5    10.0   1_565     S
V7     V10    10.0   .     S
V7     Ti19    10.0   .     S
V8     Er12    10.0   1_556     S
V8     Er6    10.0   1_565     S
V8     V9    10.0   1_655     S
V8     Ti20    10.0   .     S
V9     Er11    10.0   .     S
V9     Er5    10.0   1_565     S
V9     V8    10.0   1_455     S
V9     Ti21    10.0   .     S
V10     Er12    10.0   .     S
V10     Er6    10.0   1_565     S
V10     Ti22    10.0   .     S
Er11     V1    10.0   1_565     S
Er11     V3    10.0   1_565     S
Er11     V7    10.0   1_554     S
Er12     V2    10.0   1_565     S
Er12     V4    10.0   1_565     S
Er12     V8    10.0   1_554     S
Ti13     V45    10.0   .     S
Ti13     Ti16    10.0   1_455     S
Ti13     Ce17    10.0   1_554     S
Ti13     Ce23    10.0   .     S
Ti14     V46    10.0   .     S
Ti14     Ti15    10.0   .     S
Ti14     Ce18    10.0   1_554     S
Ti14     Ce24    10.0   .     S
Ti15     V43    10.0   .     S
Ti15     Ce18    10.0   .     S
Ti15     Ce23    10.0   .     S
Ti16     V44    10.0   .     S
Ti16     Ti13    10.0   1_655     S
Ti16     Ce17    10.0   1_655     S
Ti16     Ce24    10.0   .     S
Ce17     Ti13    10.0   1_556     S
Ce17     Ti16    10.0   1_455     S
Ce17     Ti20    10.0   1_455     S
Ce17     Ti21    10.0   .     S
Ce18     Ti14    10.0   1_556     S
Ce18     Ti19    10.0   .     S
Ce18     Ti22    10.0   .     S
Ti19     Ti21    10.0   .     S
Ti19     Ce23    10.0   1_556     S
Ti20     Ce17    10.0   1_655     S
Ti20     Ti22    10.0   .     S
Ti20     Ce24    10.0   1_556     S
Ti21     Ce23    10.0   .     S
Ti22     Ce24    10.0   .     S
Ce23     Ti19    10.0   1_554     S
Ce24     Ti20    10.0   1_554     S
Ti25     V37    10.0   .     S
Ti25     Ti28    10.0   .     S
Ti25     Ce30    10.0   1_556     S
Ti25     Ce35    10.0   .     S
Ti26     V38    10.0   .     S
Ti26     Ti27    10.0   1_655     S
Ti26     Ce29    10.0   1_656     S
Ti26     Ce36    10.0   .     S
Ti27     V39    10.0   .     S
Ti27     Ti26    10.0   1_455     S
Ti27     Ce29    10.0   .     S
Ti27     Ce35    10.0   .     S
Ti28     V40    10.0   .     S
Ti28     Ce30    10.0   .     S
Ti28     Ce36    10.0   .     S
Ce29     Ti26    10.0   1_454     S
Ce29     Ti31    10.0   .     S
Ce29     Ti34    10.0   1_455     S
Ce30     Ti25    10.0   1_554     S
Ce30     Ti32    10.0   .     S
Ce30     Ti33    10.0   .     S
Ti31     Ti33    10.0   .     S
Ti31     Ce35    10.0   1_554     S
Ti32     Ti34    10.0   .     S
Ti32     Ce36    10.0   1_554     S
Ti33     Ce35    10.0   .     S
Ti34     Ce29    10.0   1_655     S
Ti34     Ce36    10.0   .     S
Ce35     Ti31    10.0   1_556     S
Ce36     Ti32    10.0   1_556     S
V37     Er42    10.0   1_556     S
V37     Er48    10.0   .     S
V37     V39    10.0   .     S
V38     Er41    10.0   1_656     S
V38     Er47    10.0   1_655     S
V38     V40    10.0   .     S
V39     Er41    10.0   .     S
V39     Er47    10.0   .     S
V40     Er42    10.0   .     S
V40     Er48    10.0   .     S
Er41     V38    10.0   1_454     S
Er41     V44    10.0   1_455     S
Er41     V45    10.0   .     S
Er42     V37    10.0   1_554     S
Er42     V43    10.0   .     S
Er42     V46    10.0   .     S
V43     Er48    10.0   .     S
V43     V45    10.0   .     S
V44     Er47    10.0   1_655     S
V44     Er41    10.0   1_655     S
V44     V46    10.0   .     S
V45     Er47    10.0   1_554     S
V46     Er48    10.0   1_554     S
Er47     V38    10.0   1_455     S
Er47     V44    10.0   1_455     S
Er47     V45    10.0   1_556     S
Er48     V46    10.0   1_556     S
