data_ith-d
_audit_creation_date              2019-12-31
_audit_creation_method            'Pymatgen'
_symmetry_space_group_name_H-M    'P1'
_symmetry_Int_Tables_number       1
loop_
_symmetry_equiv_pos_as_xyz
  x,y,z
_cell_length_a                    52.2408
_cell_length_b                    52.2408
_cell_length_c                    52.2408
_cell_angle_alpha                 90.0
_cell_angle_beta                 90.0
_cell_angle_gamma                 90.0
loop_
_atom_site_label
_atom_site_type_symbol
_atom_site_fract_x
_atom_site_fract_y
_atom_site_fract_z
V1     V     0.375   0.125   0.125
V2     V     0.375   0.125   0.625
V3     V     0.375   0.625   0.125
V4     V     0.375   0.625   0.625
V5     V     0.875   0.125   0.125
V6     V     0.875   0.125   0.625
V7     V     0.875   0.625   0.125
V8     V     0.875   0.625   0.625
V9     V     0.125   0.375   0.125
V10     V     0.125   0.375   0.625
V11     V     0.125   0.875   0.125
V12     V     0.125   0.875   0.625
V13     V     0.625   0.375   0.125
V14     V     0.625   0.375   0.625
V15     V     0.625   0.875   0.125
V16     V     0.625   0.875   0.625
V17     V     0.125   0.125   0.375
V18     V     0.125   0.125   0.875
V19     V     0.125   0.625   0.375
V20     V     0.125   0.625   0.875
V21     V     0.625   0.125   0.375
V22     V     0.625   0.125   0.875
V23     V     0.625   0.625   0.375
V24     V     0.625   0.625   0.875
Er25     Er     0.375   0.0   0.25
Er26     Er     0.375   0.0   0.75
Er27     Er     0.375   0.5   0.25
Er28     Er     0.375   0.5   0.75
Er29     Er     0.875   0.0   0.25
Er30     Er     0.875   0.0   0.75
Er31     Er     0.875   0.5   0.25
Er32     Er     0.875   0.5   0.75
V33     V     0.375   0.125   0.375
V34     V     0.375   0.125   0.875
V35     V     0.375   0.625   0.375
V36     V     0.375   0.625   0.875
V37     V     0.875   0.125   0.375
V38     V     0.875   0.125   0.875
V39     V     0.875   0.625   0.375
V40     V     0.875   0.625   0.875
Er41     Er     0.25   0.125   0.0
Er42     Er     0.25   0.125   0.5
Er43     Er     0.25   0.625   0.0
Er44     Er     0.25   0.625   0.5
Er45     Er     0.75   0.125   0.0
Er46     Er     0.75   0.125   0.5
Er47     Er     0.75   0.625   0.0
Er48     Er     0.75   0.625   0.5
Er49     Er     0.25   0.375   0.0
Er50     Er     0.25   0.375   0.5
Er51     Er     0.25   0.875   0.0
Er52     Er     0.25   0.875   0.5
Er53     Er     0.75   0.375   0.0
Er54     Er     0.75   0.375   0.5
Er55     Er     0.75   0.875   0.0
Er56     Er     0.75   0.875   0.5
Er57     Er     0.0   0.25   0.375
Er58     Er     0.0   0.25   0.875
Er59     Er     0.0   0.75   0.375
Er60     Er     0.0   0.75   0.875
Er61     Er     0.5   0.25   0.375
Er62     Er     0.5   0.25   0.875
Er63     Er     0.5   0.75   0.375
Er64     Er     0.5   0.75   0.875
V65     V     0.125   0.375   0.375
V66     V     0.125   0.375   0.875
V67     V     0.125   0.875   0.375
V68     V     0.125   0.875   0.875
V69     V     0.625   0.375   0.375
V70     V     0.625   0.375   0.875
V71     V     0.625   0.875   0.375
V72     V     0.625   0.875   0.875
Er73     Er     0.125   0.0   0.25
Er74     Er     0.125   0.0   0.75
Er75     Er     0.125   0.5   0.25
Er76     Er     0.125   0.5   0.75
Er77     Er     0.625   0.0   0.25
Er78     Er     0.625   0.0   0.75
Er79     Er     0.625   0.5   0.25
Er80     Er     0.625   0.5   0.75
V81     V     0.375   0.375   0.125
V82     V     0.375   0.375   0.625
V83     V     0.375   0.875   0.125
V84     V     0.375   0.875   0.625
V85     V     0.875   0.375   0.125
V86     V     0.875   0.375   0.625
V87     V     0.875   0.875   0.125
V88     V     0.875   0.875   0.625
V89     V     0.125   0.125   0.125
V90     V     0.125   0.125   0.625
V91     V     0.125   0.625   0.125
V92     V     0.125   0.625   0.625
V93     V     0.625   0.125   0.125
V94     V     0.625   0.125   0.625
V95     V     0.625   0.625   0.125
V96     V     0.625   0.625   0.625
Er97     Er     0.0   0.25   0.125
Er98     Er     0.0   0.25   0.625
Er99     Er     0.0   0.75   0.125
Er100     Er     0.0   0.75   0.625
Er101     Er     0.5   0.25   0.125
Er102     Er     0.5   0.25   0.625
Er103     Er     0.5   0.75   0.125
Er104     Er     0.5   0.75   0.625
V105     V     0.375   0.375   0.375
V106     V     0.375   0.375   0.875
V107     V     0.375   0.875   0.375
V108     V     0.375   0.875   0.875
V109     V     0.875   0.375   0.375
V110     V     0.875   0.375   0.875
V111     V     0.875   0.875   0.375
V112     V     0.875   0.875   0.875
loop_
_geom_bond_atom_site_label_1
_geom_bond_atom_site_label_2
_geom_bond_distance
_geom_bond_site_symmetry_2
_ccdc_geom_bond_type
V1     Er41    9.235   .     S
V1     Er25    9.235   .     S
V1     Er101    9.235   .     S
V2     Er42    9.235   .     S
V2     Er26    9.235   .     S
V2     Er102    9.235   .     S
V3     Er43    9.235   .     S
V3     Er27    9.235   .     S
V3     Er103    9.235   .     S
V4     Er44    9.235   .     S
V4     Er28    9.235   .     S
V4     Er104    9.235   .     S
V5     Er45    9.235   .     S
V5     Er29    9.235   .     S
V5     Er97    9.235   1_655     S
V6     Er46    9.235   .     S
V6     Er30    9.235   .     S
V6     Er98    9.235   1_655     S
V7     Er47    9.235   .     S
V7     Er31    9.235   .     S
V7     Er99    9.235   1_655     S
V8     Er48    9.235   .     S
V8     Er32    9.235   .     S
V8     Er100    9.235   1_655     S
V9     Er97    9.235   .     S
V9     Er49    9.235   .     S
V9     Er75    9.235   .     S
V10     Er98    9.235   .     S
V10     Er50    9.235   .     S
V10     Er76    9.235   .     S
V11     Er99    9.235   .     S
V11     Er51    9.235   .     S
V11     Er73    9.235   1_565     S
V12     Er100    9.235   .     S
V12     Er52    9.235   .     S
V12     Er74    9.235   1_565     S
V13     Er101    9.235   .     S
V13     Er53    9.235   .     S
V13     Er79    9.235   .     S
V14     Er102    9.235   .     S
V14     Er54    9.235   .     S
V14     Er80    9.235   .     S
V15     Er103    9.235   .     S
V15     Er55    9.235   .     S
V15     Er77    9.235   1_565     S
V16     Er104    9.235   .     S
V16     Er56    9.235   .     S
V16     Er78    9.235   1_565     S
V17     Er73    9.235   .     S
V17     Er57    9.235   .     S
V17     Er42    9.235   .     S
V18     Er74    9.235   .     S
V18     Er58    9.235   .     S
V18     Er41    9.235   1_556     S
V19     Er75    9.235   .     S
V19     Er59    9.235   .     S
V19     Er44    9.235   .     S
V20     Er76    9.235   .     S
V20     Er60    9.235   .     S
V20     Er43    9.235   1_556     S
V21     Er77    9.235   .     S
V21     Er61    9.235   .     S
V21     Er46    9.235   .     S
V22     Er78    9.235   .     S
V22     Er62    9.235   .     S
V22     Er45    9.235   1_556     S
V23     Er79    9.235   .     S
V23     Er63    9.235   .     S
V23     Er48    9.235   .     S
V24     Er80    9.235   .     S
V24     Er64    9.235   .     S
V24     Er47    9.235   1_556     S
Er25     Er73    13.06   .     S
Er25     Er77    13.06   .     S
Er25     V83    9.235   1_545     S
Er25     V107    9.235   1_545     S
Er25     V33    9.235   .     S
Er26     Er74    13.06   .     S
Er26     Er78    13.06   .     S
Er26     V84    9.235   1_545     S
Er26     V108    9.235   1_545     S
Er26     V34    9.235   .     S
Er27     Er75    13.06   .     S
Er27     Er79    13.06   .     S
Er27     V81    9.235   .     S
Er27     V105    9.235   .     S
Er27     V35    9.235   .     S
Er28     Er76    13.06   .     S
Er28     Er80    13.06   .     S
Er28     V82    9.235   .     S
Er28     V106    9.235   .     S
Er28     V36    9.235   .     S
Er29     Er77    13.06   .     S
Er29     Er73    13.06   1_655     S
Er29     V87    9.235   1_545     S
Er29     V111    9.235   1_545     S
Er29     V37    9.235   .     S
Er30     Er78    13.06   .     S
Er30     Er74    13.06   1_655     S
Er30     V88    9.235   1_545     S
Er30     V112    9.235   1_545     S
Er30     V38    9.235   .     S
Er31     Er79    13.06   .     S
Er31     Er75    13.06   1_655     S
Er31     V85    9.235   .     S
Er31     V109    9.235   .     S
Er31     V39    9.235   .     S
Er32     Er80    13.06   .     S
Er32     Er76    13.06   1_655     S
Er32     V86    9.235   .     S
Er32     V110    9.235   .     S
Er32     V40    9.235   .     S
V33     Er42    9.235   .     S
V33     Er61    9.235   .     S
V34     Er41    9.235   1_556     S
V34     Er62    9.235   .     S
V35     Er44    9.235   .     S
V35     Er63    9.235   .     S
V36     Er43    9.235   1_556     S
V36     Er64    9.235   .     S
V37     Er46    9.235   .     S
V37     Er57    9.235   1_655     S
V38     Er45    9.235   1_556     S
V38     Er58    9.235   1_655     S
V39     Er48    9.235   .     S
V39     Er59    9.235   1_655     S
V40     Er47    9.235   1_556     S
V40     Er60    9.235   1_655     S
Er41     Er49    13.06   .     S
Er41     Er51    13.06   1_545     S
Er41     V34    9.235   1_554     S
Er41     V18    9.235   1_554     S
Er41     V89    9.235   .     S
Er42     Er50    13.06   .     S
Er42     Er52    13.06   1_545     S
Er42     V90    9.235   .     S
Er43     Er51    13.06   .     S
Er43     Er49    13.06   .     S
Er43     V36    9.235   1_554     S
Er43     V20    9.235   1_554     S
Er43     V91    9.235   .     S
Er44     Er52    13.06   .     S
Er44     Er50    13.06   .     S
Er44     V92    9.235   .     S
Er45     Er53    13.06   .     S
Er45     Er55    13.06   1_545     S
Er45     V38    9.235   1_554     S
Er45     V22    9.235   1_554     S
Er45     V93    9.235   .     S
Er46     Er54    13.06   .     S
Er46     Er56    13.06   1_545     S
Er46     V94    9.235   .     S
Er47     Er55    13.06   .     S
Er47     Er53    13.06   .     S
Er47     V40    9.235   1_554     S
Er47     V24    9.235   1_554     S
Er47     V95    9.235   .     S
Er48     Er56    13.06   .     S
Er48     Er54    13.06   .     S
Er48     V96    9.235   .     S
Er49     V66    9.235   1_554     S
Er49     V106    9.235   1_554     S
Er49     V81    9.235   .     S
Er50     V65    9.235   .     S
Er50     V105    9.235   .     S
Er50     V82    9.235   .     S
Er51     Er41    13.06   1_565     S
Er51     V68    9.235   1_554     S
Er51     V108    9.235   1_554     S
Er51     V83    9.235   .     S
Er52     Er42    13.06   1_565     S
Er52     V67    9.235   .     S
Er52     V107    9.235   .     S
Er52     V84    9.235   .     S
Er53     V70    9.235   1_554     S
Er53     V110    9.235   1_554     S
Er53     V85    9.235   .     S
Er54     V69    9.235   .     S
Er54     V109    9.235   .     S
Er54     V86    9.235   .     S
Er55     Er45    13.06   1_565     S
Er55     V72    9.235   1_554     S
Er55     V112    9.235   1_554     S
Er55     V87    9.235   .     S
Er56     Er46    13.06   1_565     S
Er56     V71    9.235   .     S
Er56     V111    9.235   .     S
Er56     V88    9.235   .     S
Er57     Er97    13.06   .     S
Er57     Er98    13.06   .     S
Er57     V37    9.235   1_455     S
Er57     V109    9.235   1_455     S
Er57     V65    9.235   .     S
Er58     Er98    13.06   .     S
Er58     Er97    13.06   1_556     S
Er58     V38    9.235   1_455     S
Er58     V110    9.235   1_455     S
Er58     V66    9.235   .     S
Er59     Er99    13.06   .     S
Er59     Er100    13.06   .     S
Er59     V39    9.235   1_455     S
Er59     V111    9.235   1_455     S
Er59     V67    9.235   .     S
Er60     Er100    13.06   .     S
Er60     Er99    13.06   1_556     S
Er60     V40    9.235   1_455     S
Er60     V112    9.235   1_455     S
Er60     V68    9.235   .     S
Er61     Er101    13.06   .     S
Er61     Er102    13.06   .     S
Er61     V105    9.235   .     S
Er61     V69    9.235   .     S
Er62     Er102    13.06   .     S
Er62     Er101    13.06   1_556     S
Er62     V106    9.235   .     S
Er62     V70    9.235   .     S
Er63     Er103    13.06   .     S
Er63     Er104    13.06   .     S
Er63     V107    9.235   .     S
Er63     V71    9.235   .     S
Er64     Er104    13.06   .     S
Er64     Er103    13.06   1_556     S
Er64     V108    9.235   .     S
Er64     V72    9.235   .     S
V65     Er75    9.235   .     S
V66     Er49    9.235   1_556     S
V66     Er76    9.235   .     S
V67     Er73    9.235   1_565     S
V68     Er51    9.235   1_556     S
V68     Er74    9.235   1_565     S
V69     Er79    9.235   .     S
V70     Er53    9.235   1_556     S
V70     Er80    9.235   .     S
V71     Er77    9.235   1_565     S
V72     Er55    9.235   1_556     S
V72     Er78    9.235   1_565     S
Er73     Er29    13.06   1_455     S
Er73     V67    9.235   1_545     S
Er73     V11    9.235   1_545     S
Er73     V89    9.235   .     S
Er74     Er30    13.06   1_455     S
Er74     V68    9.235   1_545     S
Er74     V12    9.235   1_545     S
Er74     V90    9.235   .     S
Er75     Er31    13.06   1_455     S
Er75     V91    9.235   .     S
Er76     Er32    13.06   1_455     S
Er76     V92    9.235   .     S
Er77     V71    9.235   1_545     S
Er77     V15    9.235   1_545     S
Er77     V93    9.235   .     S
Er78     V72    9.235   1_545     S
Er78     V16    9.235   1_545     S
Er78     V94    9.235   .     S
Er79     V95    9.235   .     S
Er80     V96    9.235   .     S
V81     Er101    9.235   .     S
V82     Er102    9.235   .     S
V83     Er25    9.235   1_565     S
V83     Er103    9.235   .     S
V84     Er26    9.235   1_565     S
V84     Er104    9.235   .     S
V85     Er97    9.235   1_655     S
V86     Er98    9.235   1_655     S
V87     Er29    9.235   1_565     S
V87     Er99    9.235   1_655     S
V88     Er30    9.235   1_565     S
V88     Er100    9.235   1_655     S
V89     Er97    9.235   .     S
V90     Er98    9.235   .     S
V91     Er99    9.235   .     S
V92     Er100    9.235   .     S
V93     Er101    9.235   .     S
V94     Er102    9.235   .     S
V95     Er103    9.235   .     S
V96     Er104    9.235   .     S
Er97     Er58    13.06   1_554     S
Er97     V85    9.235   1_455     S
Er97     V5    9.235   1_455     S
Er98     V86    9.235   1_455     S
Er98     V6    9.235   1_455     S
Er99     Er60    13.06   1_554     S
Er99     V87    9.235   1_455     S
Er99     V7    9.235   1_455     S
Er100     V88    9.235   1_455     S
Er100     V8    9.235   1_455     S
Er101     Er62    13.06   1_554     S
Er103     Er64    13.06   1_554     S
V106     Er49    9.235   1_556     S
V107     Er25    9.235   1_565     S
V108     Er26    9.235   1_565     S
V108     Er51    9.235   1_556     S
V109     Er57    9.235   1_655     S
V110     Er53    9.235   1_556     S
V110     Er58    9.235   1_655     S
V111     Er29    9.235   1_565     S
V111     Er59    9.235   1_655     S
V112     Er30    9.235   1_565     S
V112     Er55    9.235   1_556     S
V112     Er60    9.235   1_655     S
