data_itv
_audit_creation_date              2019-12-31
_audit_creation_method            'Pymatgen'
_symmetry_space_group_name_H-M    'P1'
_symmetry_Int_Tables_number       1
loop_
_symmetry_equiv_pos_as_xyz
  x,y,z
_cell_length_a                    29.8808
_cell_length_b                    29.8808
_cell_length_c                    28.4816
_cell_angle_alpha                 90.0
_cell_angle_beta                 90.0
_cell_angle_gamma                 90.0
loop_
_atom_site_label
_atom_site_type_symbol
_atom_site_fract_x
_atom_site_fract_y
_atom_site_fract_z
Er1     Er     0.25   0.6325   0.1875
Er2     Er     0.25   0.6325   0.6875
Er3     Er     0.25   0.8675   0.4375
Er4     Er     0.25   0.8675   0.9375
Er5     Er     0.3675   0.25   0.3125
Er6     Er     0.3675   0.25   0.8125
Er7     Er     0.1325   0.25   0.0625
Er8     Er     0.1325   0.25   0.5625
Er9     Er     0.75   0.1325   0.4375
Er10     Er     0.75   0.1325   0.9375
Er11     Er     0.75   0.3675   0.1875
Er12     Er     0.75   0.3675   0.6875
Er13     Er     0.6325   0.75   0.3125
Er14     Er     0.6325   0.75   0.8125
Er15     Er     0.8675   0.75   0.0625
Er16     Er     0.8675   0.75   0.5625
V17     V     0.0   0.0   0.25
V18     V     0.0   0.0   0.75
V19     V     0.0   0.5   0.375
V20     V     0.0   0.5   0.875
V21     V     0.5   0.0   0.125
V22     V     0.5   0.0   0.625
V23     V     0.5   0.5   0.0
V24     V     0.5   0.5   0.5
loop_
_geom_bond_atom_site_label_1
_geom_bond_atom_site_label_2
_geom_bond_distance
_geom_bond_site_symmetry_2
_ccdc_geom_bond_type
Er1     V23    10.0   .     S
Er1     V19    10.0   .     S
Er1     Er3    10.0   .     S
Er1     Er4    10.0   1_554     S
Er2     V24    10.0   .     S
Er2     V20    10.0   .     S
Er2     Er4    10.0   .     S
Er2     Er3    10.0   .     S
Er3     V17    10.0   1_565     S
Er3     V22    10.0   1_565     S
Er4     V18    10.0   1_565     S
Er4     V21    10.0   1_566     S
Er4     Er1    10.0   1_556     S
Er5     V24    10.0   .     S
Er5     V21    10.0   .     S
Er5     Er8    10.0   .     S
Er5     Er7    10.0   .     S
Er6     V23    10.0   1_556     S
Er6     V22    10.0   .     S
Er6     Er7    10.0   1_556     S
Er6     Er8    10.0   .     S
Er7     Er6    10.0   1_554     S
Er7     V20    10.0   1_554     S
Er7     V17    10.0   .     S
Er8     V19    10.0   .     S
Er8     V18    10.0   .     S
Er9     V17    10.0   1_655     S
Er9     V22    10.0   .     S
Er9     Er11    10.0   .     S
Er9     Er12    10.0   .     S
Er10     V18    10.0   1_655     S
Er10     V21    10.0   1_556     S
Er10     Er12    10.0   .     S
Er10     Er11    10.0   1_556     S
Er11     V19    10.0   1_655     S
Er11     V23    10.0   .     S
Er11     Er10    10.0   1_554     S
Er12     V20    10.0   1_655     S
Er12     V24    10.0   .     S
Er13     V21    10.0   1_565     S
Er13     V24    10.0   .     S
Er13     Er15    10.0   .     S
Er13     Er16    10.0   .     S
Er14     V22    10.0   1_565     S
Er14     V23    10.0   1_556     S
Er14     Er16    10.0   .     S
Er14     Er15    10.0   1_556     S
Er15     V17    10.0   1_665     S
Er15     V20    10.0   1_654     S
Er15     Er14    10.0   1_554     S
Er16     V18    10.0   1_665     S
Er16     V19    10.0   1_655     S
V17     Er3    10.0   1_545     S
V17     Er9    10.0   1_455     S
V17     Er15    10.0   1_445     S
V18     Er4    10.0   1_545     S
V18     Er10    10.0   1_455     S
V18     Er16    10.0   1_445     S
V19     Er11    10.0   1_455     S
V19     Er16    10.0   1_455     S
V20     Er7    10.0   1_556     S
V20     Er12    10.0   1_455     S
V20     Er15    10.0   1_456     S
V21     Er4    10.0   1_544     S
V21     Er10    10.0   1_554     S
V21     Er13    10.0   1_545     S
V22     Er3    10.0   1_545     S
V22     Er14    10.0   1_545     S
V23     Er6    10.0   1_554     S
V23     Er14    10.0   1_554     S
