data_jbw
_audit_creation_date              2019-12-31
_audit_creation_method            'Pymatgen'
_symmetry_space_group_name_H-M    'P1'
_symmetry_Int_Tables_number       1
loop_
_symmetry_equiv_pos_as_xyz
  x,y,z
_cell_length_a                    33.3588
_cell_length_b                    24.2732
_cell_length_c                    25.0461
_cell_angle_alpha                 90.0
_cell_angle_beta                 90.0
_cell_angle_gamma                 90.0
loop_
_atom_site_label
_atom_site_type_symbol
_atom_site_fract_x
_atom_site_fract_y
_atom_site_fract_z
Er1     Er     0.125   0.5   0.3898
Er2     Er     0.625   0.5   0.3898
Er3     Er     0.375   0.5   0.6102
Er4     Er     0.875   0.5   0.6102
V5     V     0.375   0.794   0.8898
V6     V     0.875   0.794   0.8898
V7     V     0.125   0.794   0.1102
V8     V     0.625   0.794   0.1102
V9     V     0.375   0.206   0.8898
V10     V     0.875   0.206   0.8898
V11     V     0.125   0.206   0.1102
V12     V     0.625   0.206   0.1102
loop_
_geom_bond_atom_site_label_1
_geom_bond_atom_site_label_2
_geom_bond_distance
_geom_bond_site_symmetry_2
_ccdc_geom_bond_type
Er1     Er3    10.0   .     S
Er1     Er4    10.0   1_455     S
Er1     V7    10.0   .     S
Er1     V11    10.0   .     S
Er2     Er4    10.0   .     S
Er2     Er3    10.0   .     S
Er2     V8    10.0   .     S
Er2     V12    10.0   .     S
Er3     V5    10.0   .     S
Er3     V9    10.0   .     S
Er4     Er1    10.0   1_655     S
Er4     V6    10.0   .     S
Er4     V10    10.0   .     S
V5     V8    10.0   1_556     S
V5     V7    10.0   1_556     S
V5     V9    10.0   1_565     S
V6     V7    10.0   1_656     S
V6     V8    10.0   1_556     S
V6     V10    10.0   1_565     S
V7     V6    10.0   1_454     S
V7     V5    10.0   1_554     S
V7     V11    10.0   1_565     S
V8     V5    10.0   1_554     S
V8     V6    10.0   1_554     S
V8     V12    10.0   1_565     S
V9     V11    10.0   1_556     S
V9     V12    10.0   1_556     S
V9     V5    10.0   1_545     S
V10     V12    10.0   1_556     S
V10     V11    10.0   1_656     S
V10     V6    10.0   1_545     S
V11     V9    10.0   1_554     S
V11     V10    10.0   1_454     S
V11     V7    10.0   1_545     S
V12     V10    10.0   1_554     S
V12     V9    10.0   1_554     S
V12     V8    10.0   1_545     S
