data_jcy
_audit_creation_date              2019-12-31
_audit_creation_method            'Pymatgen'
_symmetry_space_group_name_H-M    'P1'
_symmetry_Int_Tables_number       1
loop_
_symmetry_equiv_pos_as_xyz
  x,y,z
_cell_length_a                    29.5697
_cell_length_b                    29.5697
_cell_length_c                    32.5482
_cell_angle_alpha                 90.0
_cell_angle_beta                 90.0
_cell_angle_gamma                 120.0
loop_
_atom_site_label
_atom_site_type_symbol
_atom_site_fract_x
_atom_site_fract_y
_atom_site_fract_z
Ti1     Ti     0.6095   0.8049   0.125
Ti2     Ti     0.6095   0.8049   0.625
V3     V     0.5286   0.948   0.375
V4     V     0.5286   0.948   0.875
V5     V     0.4195   0.4714   0.375
V6     V     0.4195   0.4714   0.875
Ti7     Ti     0.1954   0.3905   0.125
Ti8     Ti     0.1954   0.3905   0.625
Ti9     Ti     0.1952   0.8046   0.125
Ti10     Ti     0.1952   0.8046   0.625
V11     V     0.052   0.5805   0.375
V12     V     0.052   0.5805   0.875
Er13     Er     0.0   0.0   0.125
Er14     Er     0.0   0.0   0.625
Ti15     Ti     0.8049   0.6095   0.375
Ti16     Ti     0.8049   0.6095   0.875
V17     V     0.948   0.5286   0.125
V18     V     0.948   0.5286   0.625
Ti19     Ti     0.3905   0.1954   0.375
Ti20     Ti     0.3905   0.1954   0.875
V21     V     0.4714   0.4195   0.125
V22     V     0.4714   0.4195   0.625
Ti23     Ti     0.8047   0.1951   0.375
Ti24     Ti     0.8047   0.1951   0.875
V25     V     0.5805   0.052   0.125
V26     V     0.5805   0.052   0.625
Er27     Er     0.0   0.0   0.375
Er28     Er     0.0   0.0   0.875
loop_
_geom_bond_atom_site_label_1
_geom_bond_atom_site_label_2
_geom_bond_distance
_geom_bond_site_symmetry_2
_ccdc_geom_bond_type
Ti1     V3    10.0   .     S
Ti1     V4    10.0   1_554     S
Ti1     Er13    10.0   1_665     S
Ti1     V21    10.0   .     S
Ti2     V4    10.0   .     S
Ti2     V3    10.0   .     S
Ti2     Er14    10.0   1_665     S
Ti2     V22    10.0   .     S
V3     Ti19    10.0   1_565     S
V4     Ti1    10.0   1_556     S
V4     Ti20    10.0   1_565     S
V5     Ti7    10.0   .     S
V5     Ti8    10.0   .     S
V5     Ti15    10.0   .     S
V6     Ti8    10.0   .     S
V6     Ti7    10.0   1_556     S
V6     Ti16    10.0   .     S
Ti7     V6    10.0   1_554     S
Ti7     Er13    10.0   .     S
Ti7     V17    10.0   1_455     S
Ti8     Er14    10.0   .     S
Ti8     V18    10.0   1_455     S
Ti9     V11    10.0   .     S
Ti9     V12    10.0   1_554     S
Ti9     Er13    10.0   1_565     S
Ti9     V25    10.0   1_565     S
Ti10     V12    10.0   .     S
Ti10     V11    10.0   .     S
Ti10     Er14    10.0   1_565     S
Ti10     V26    10.0   1_565     S
V11     Ti23    10.0   1_455     S
V12     Ti9    10.0   1_556     S
V12     Ti24    10.0   1_455     S
Er13     Ti9    10.0   1_545     S
Er13     Ti1    10.0   1_445     S
Er14     Ti10    10.0   1_545     S
Er14     Ti2    10.0   1_445     S
Ti15     V17    10.0   .     S
Ti15     V18    10.0   .     S
Ti15     Er27    10.0   1_665     S
Ti16     V18    10.0   .     S
Ti16     V17    10.0   1_556     S
Ti16     Er28    10.0   1_665     S
V17     Ti16    10.0   1_554     S
V17     Ti7    10.0   1_655     S
V18     Ti8    10.0   1_655     S
Ti19     V21    10.0   .     S
Ti19     V22    10.0   .     S
Ti19     Er27    10.0   .     S
Ti19     V3    10.0   1_545     S
Ti20     V22    10.0   .     S
Ti20     V21    10.0   1_556     S
Ti20     Er28    10.0   .     S
Ti20     V4    10.0   1_545     S
V21     Ti20    10.0   1_554     S
Ti23     V25    10.0   .     S
Ti23     V26    10.0   .     S
Ti23     Er27    10.0   1_655     S
Ti23     V11    10.0   1_655     S
Ti24     V26    10.0   .     S
Ti24     V25    10.0   1_556     S
Ti24     Er28    10.0   1_655     S
Ti24     V12    10.0   1_655     S
V25     Ti24    10.0   1_554     S
V25     Ti9    10.0   1_545     S
V26     Ti10    10.0   1_545     S
Er27     Ti23    10.0   1_455     S
Er27     Ti15    10.0   1_445     S
Er28     Ti24    10.0   1_455     S
Er28     Ti16    10.0   1_445     S
