data_jea
_audit_creation_date              2019-12-31
_audit_creation_method            'Pymatgen'
_symmetry_space_group_name_H-M    'P1'
_symmetry_Int_Tables_number       1
loop_
_symmetry_equiv_pos_as_xyz
  x,y,z
_cell_length_a                    38.2854
_cell_length_b                    32.0898
_cell_length_c                    26.1878
_cell_angle_alpha                 90.0
_cell_angle_beta                 90.0
_cell_angle_gamma                 90.0
loop_
_atom_site_label
_atom_site_type_symbol
_atom_site_fract_x
_atom_site_fract_y
_atom_site_fract_z
Er1     Er     0.78   0.0   0.8132
Er2     Er     0.78   0.5   0.8132
V3     V     0.6306   0.0   0.5
V4     V     0.6306   0.5   0.5
Er5     Er     0.72   0.25   0.3132
Er6     Er     0.72   0.75   0.3132
V7     V     0.8694   0.25   0.0
V8     V     0.8694   0.75   0.0
Er9     Er     0.28   0.25   0.3132
Er10     Er     0.28   0.75   0.3132
V11     V     0.1306   0.25   0.0
V12     V     0.1306   0.75   0.0
Er13     Er     0.22   0.0   0.8132
Er14     Er     0.22   0.5   0.8132
V15     V     0.3694   0.0   0.5
V16     V     0.3694   0.5   0.5
loop_
_geom_bond_atom_site_label_1
_geom_bond_atom_site_label_2
_geom_bond_distance
_geom_bond_site_symmetry_2
_ccdc_geom_bond_type
Er1     V3    10.0   .     S
Er1     V8    10.0   1_546     S
Er1     V7    10.0   1_556     S
Er2     V4    10.0   .     S
Er2     V7    10.0   1_556     S
Er2     V8    10.0   1_556     S
V3     Er6    10.0   1_545     S
V3     Er5    10.0   .     S
V3     V15    10.0   .     S
V4     Er5    10.0   .     S
V4     Er6    10.0   .     S
V4     V16    10.0   .     S
Er5     V7    10.0   .     S
Er6     V3    10.0   1_565     S
Er6     V8    10.0   .     S
V7     Er2    10.0   1_554     S
V7     Er1    10.0   1_554     S
V7     V11    10.0   1_655     S
V8     Er1    10.0   1_564     S
V8     Er2    10.0   1_554     S
V8     V12    10.0   1_655     S
Er9     V11    10.0   .     S
Er9     V15    10.0   .     S
Er9     V16    10.0   .     S
Er10     V12    10.0   .     S
Er10     V16    10.0   .     S
Er10     V15    10.0   1_565     S
V11     Er13    10.0   1_554     S
V11     Er14    10.0   1_554     S
V11     V7    10.0   1_455     S
V12     Er14    10.0   1_554     S
V12     Er13    10.0   1_564     S
V12     V8    10.0   1_455     S
Er13     V11    10.0   1_556     S
Er13     V12    10.0   1_546     S
Er13     V15    10.0   .     S
Er14     V12    10.0   1_556     S
Er14     V11    10.0   1_556     S
Er14     V16    10.0   .     S
V15     Er10    10.0   1_545     S
