data_jeb
_audit_creation_date              2019-12-31
_audit_creation_method            'Pymatgen'
_symmetry_space_group_name_H-M    'P1'
_symmetry_Int_Tables_number       1
loop_
_symmetry_equiv_pos_as_xyz
  x,y,z
_cell_length_a                    49.4494
_cell_length_b                    37.3892
_cell_length_c                    33.1788
_cell_angle_alpha                 90.0
_cell_angle_beta                 90.0
_cell_angle_gamma                 90.0
loop_
_atom_site_label
_atom_site_type_symbol
_atom_site_fract_x
_atom_site_fract_y
_atom_site_fract_z
V1     V     0.8989   0.25   0.0
V2     V     0.8989   0.25   0.5
V3     V     0.8989   0.75   0.0
V4     V     0.8989   0.75   0.5
V5     V     0.1011   0.25   0.0
V6     V     0.1011   0.25   0.5
V7     V     0.1011   0.75   0.0
V8     V     0.1011   0.75   0.5
Er9     Er     0.2859   0.0   0.25
Er10     Er     0.2859   0.0   0.75
Er11     Er     0.2859   0.5   0.25
Er12     Er     0.2859   0.5   0.75
Er13     Er     0.2141   0.25   0.25
Er14     Er     0.2141   0.25   0.75
Er15     Er     0.2141   0.75   0.25
Er16     Er     0.2141   0.75   0.75
Er17     Er     0.7141   0.0   0.25
Er18     Er     0.7141   0.0   0.75
Er19     Er     0.7141   0.5   0.25
Er20     Er     0.7141   0.5   0.75
Er21     Er     0.7859   0.25   0.25
Er22     Er     0.7859   0.25   0.75
Er23     Er     0.7859   0.75   0.25
Er24     Er     0.7859   0.75   0.75
V25     V     0.3989   0.0   0.0
V26     V     0.3989   0.0   0.5
V27     V     0.3989   0.5   0.0
V28     V     0.3989   0.5   0.5
V29     V     0.6011   0.0   0.0
V30     V     0.6011   0.0   0.5
V31     V     0.6011   0.5   0.0
V32     V     0.6011   0.5   0.5
loop_
_geom_bond_atom_site_label_1
_geom_bond_atom_site_label_2
_geom_bond_distance
_geom_bond_site_symmetry_2
_ccdc_geom_bond_type
V1     V5    10.0   1_655     S
V1     Er22    10.0   1_554     S
V1     Er21    10.0   .     S
V2     V6    10.0   1_655     S
V2     Er21    10.0   .     S
V2     Er22    10.0   .     S
V3     V7    10.0   1_655     S
V3     Er24    10.0   1_554     S
V3     Er23    10.0   .     S
V4     V8    10.0   1_655     S
V4     Er23    10.0   .     S
V4     Er24    10.0   .     S
V5     V1    10.0   1_455     S
V5     Er14    10.0   1_554     S
V5     Er13    10.0   .     S
V6     V2    10.0   1_455     S
V6     Er13    10.0   .     S
V6     Er14    10.0   .     S
V7     V3    10.0   1_455     S
V7     Er16    10.0   1_554     S
V7     Er15    10.0   .     S
V8     V4    10.0   1_455     S
V8     Er15    10.0   .     S
V8     Er16    10.0   .     S
Er9     Er15    10.0   1_545     S
Er9     Er13    10.0   .     S
Er9     V26    10.0   .     S
Er9     V25    10.0   .     S
Er10     Er16    10.0   1_545     S
Er10     Er14    10.0   .     S
Er10     V25    10.0   1_556     S
Er10     V26    10.0   .     S
Er11     Er13    10.0   .     S
Er11     Er15    10.0   .     S
Er11     V28    10.0   .     S
Er11     V27    10.0   .     S
Er12     Er14    10.0   .     S
Er12     Er16    10.0   .     S
Er12     V27    10.0   1_556     S
Er12     V28    10.0   .     S
Er14     V5    10.0   1_556     S
Er15     Er9    10.0   1_565     S
Er16     V7    10.0   1_556     S
Er16     Er10    10.0   1_565     S
Er17     Er23    10.0   1_545     S
Er17     Er21    10.0   .     S
Er17     V29    10.0   .     S
Er17     V30    10.0   .     S
Er18     Er24    10.0   1_545     S
Er18     Er22    10.0   .     S
Er18     V30    10.0   .     S
Er18     V29    10.0   1_556     S
Er19     Er21    10.0   .     S
Er19     Er23    10.0   .     S
Er19     V31    10.0   .     S
Er19     V32    10.0   .     S
Er20     Er22    10.0   .     S
Er20     Er24    10.0   .     S
Er20     V32    10.0   .     S
Er20     V31    10.0   1_556     S
Er22     V1    10.0   1_556     S
Er23     Er17    10.0   1_565     S
Er24     V3    10.0   1_556     S
Er24     Er18    10.0   1_565     S
V25     V29    10.0   .     S
V25     Er10    10.0   1_554     S
V26     V30    10.0   .     S
V27     V31    10.0   .     S
V27     Er12    10.0   1_554     S
V28     V32    10.0   .     S
V29     Er18    10.0   1_554     S
V31     Er20    10.0   1_554     S
