data_jsd
_audit_creation_date              2019-12-31
_audit_creation_method            'Pymatgen'
_symmetry_space_group_name_H-M    'P1'
_symmetry_Int_Tables_number       1
loop_
_symmetry_equiv_pos_as_xyz
  x,y,z
_cell_length_a                    21.5341
_cell_length_b                    56.7753
_cell_length_c                    36.2462
_cell_angle_alpha                 90.0
_cell_angle_beta                 90.0
_cell_angle_gamma                 90.0
loop_
_atom_site_label
_atom_site_type_symbol
_atom_site_fract_x
_atom_site_fract_y
_atom_site_fract_z
Er1     Er     0.75   0.9519   0.0
Er2     Er     0.75   0.9519   0.5
Ti3     Ti     0.365   0.899   0.1302
Ti4     Ti     0.365   0.899   0.6302
Ti5     Ti     0.135   0.899   0.3698
Ti6     Ti     0.135   0.899   0.8698
V7     V     0.25   0.75   0.0
V8     V     0.25   0.75   0.5
Er9     Er     0.75   0.5481   0.0
Er10     Er     0.75   0.5481   0.5
Ti11     Ti     0.135   0.601   0.1302
Ti12     Ti     0.135   0.601   0.6302
Ti13     Ti     0.365   0.601   0.3698
Ti14     Ti     0.365   0.601   0.8698
Er15     Er     0.25   0.0481   0.0
Er16     Er     0.25   0.0481   0.5
Ti17     Ti     0.865   0.101   0.1302
Ti18     Ti     0.865   0.101   0.6302
Ti19     Ti     0.635   0.101   0.3698
Ti20     Ti     0.635   0.101   0.8698
V21     V     0.75   0.25   0.0
V22     V     0.75   0.25   0.5
Er23     Er     0.25   0.4519   0.0
Er24     Er     0.25   0.4519   0.5
Ti25     Ti     0.635   0.399   0.1302
Ti26     Ti     0.635   0.399   0.6302
Ti27     Ti     0.865   0.399   0.3698
Ti28     Ti     0.865   0.399   0.8698
loop_
_geom_bond_atom_site_label_1
_geom_bond_atom_site_label_2
_geom_bond_distance
_geom_bond_site_symmetry_2
_ccdc_geom_bond_type
Er1     Ti6    10.0   1_654     S
Er1     Ti3    10.0   .     S
Er1     Ti17    10.0   1_565     S
Er1     Ti20    10.0   1_564     S
Er2     Ti5    10.0   1_655     S
Er2     Ti4    10.0   .     S
Er2     Ti18    10.0   1_565     S
Er2     Ti19    10.0   1_565     S
Ti3     Er15    10.0   1_565     S
Ti3     Ti5    10.0   .     S
Ti3     V7    10.0   .     S
Ti4     Er16    10.0   1_565     S
Ti4     Ti6    10.0   .     S
Ti4     V8    10.0   .     S
Ti5     Er2    10.0   1_455     S
Ti5     Er16    10.0   1_565     S
Ti5     V8    10.0   .     S
Ti6     Er1    10.0   1_456     S
Ti6     Er15    10.0   1_566     S
Ti6     V7    10.0   1_556     S
V7     Ti11    10.0   .     S
V7     Ti14    10.0   1_554     S
V7     Ti6    10.0   1_554     S
V8     Ti12    10.0   .     S
V8     Ti13    10.0   .     S
Er9     Ti11    10.0   1_655     S
Er9     Ti14    10.0   1_554     S
Er9     Ti25    10.0   .     S
Er9     Ti28    10.0   1_554     S
Er10     Ti12    10.0   1_655     S
Er10     Ti13    10.0   .     S
Er10     Ti26    10.0   .     S
Er10     Ti27    10.0   .     S
Ti11     Er9    10.0   1_455     S
Ti11     Er23    10.0   .     S
Ti11     Ti13    10.0   .     S
Ti12     Er10    10.0   1_455     S
Ti12     Er24    10.0   .     S
Ti12     Ti14    10.0   .     S
Ti13     Er24    10.0   .     S
Ti14     V7    10.0   1_556     S
Ti14     Er9    10.0   1_556     S
Ti14     Er23    10.0   1_556     S
Er15     Ti3    10.0   1_545     S
Er15     Ti6    10.0   1_544     S
Er15     Ti17    10.0   1_455     S
Er15     Ti20    10.0   1_554     S
Er16     Ti4    10.0   1_545     S
Er16     Ti5    10.0   1_545     S
Er16     Ti18    10.0   1_455     S
Er16     Ti19    10.0   .     S
Ti17     Er15    10.0   1_655     S
Ti17     Er1    10.0   1_545     S
Ti17     Ti19    10.0   .     S
Ti17     V21    10.0   .     S
Ti18     Er16    10.0   1_655     S
Ti18     Er2    10.0   1_545     S
Ti18     Ti20    10.0   .     S
Ti18     V22    10.0   .     S
Ti19     Er2    10.0   1_545     S
Ti19     V22    10.0   .     S
Ti20     Er15    10.0   1_556     S
Ti20     Er1    10.0   1_546     S
Ti20     V21    10.0   1_556     S
V21     Ti20    10.0   1_554     S
V21     Ti28    10.0   1_554     S
V21     Ti25    10.0   .     S
V22     Ti27    10.0   .     S
V22     Ti26    10.0   .     S
Er23     Ti14    10.0   1_554     S
Er23     Ti25    10.0   .     S
Er23     Ti28    10.0   1_454     S
Er24     Ti26    10.0   .     S
Er24     Ti27    10.0   1_455     S
Ti25     Ti27    10.0   .     S
Ti26     Ti28    10.0   .     S
Ti27     Er24    10.0   1_655     S
Ti28     V21    10.0   1_556     S
Ti28     Er23    10.0   1_656     S
Ti28     Er9    10.0   1_556     S
