data_jse
_audit_creation_date              2019-12-31
_audit_creation_method            'Pymatgen'
_symmetry_space_group_name_H-M    'P1'
_symmetry_Int_Tables_number       1
loop_
_symmetry_equiv_pos_as_xyz
  x,y,z
_cell_length_a                    39.3482
_cell_length_b                    39.3482
_cell_length_c                    112.4937
_cell_angle_alpha                 90.0
_cell_angle_beta                 90.0
_cell_angle_gamma                 90.0
loop_
_atom_site_label
_atom_site_type_symbol
_atom_site_fract_x
_atom_site_fract_y
_atom_site_fract_z
Ti1     Ti     0.3838   0.3237   0.0516
Ti2     Ti     0.3838   0.8237   0.0516
Ti3     Ti     0.8838   0.3237   0.0516
Ti4     Ti     0.8838   0.8237   0.0516
Ti5     Ti     0.1162   0.4263   0.0516
Ti6     Ti     0.1162   0.9263   0.0516
Ti7     Ti     0.6162   0.4263   0.0516
Ti8     Ti     0.6162   0.9263   0.0516
Er9     Er     0.25   0.375   0.9782
Er10     Er     0.25   0.875   0.9782
Er11     Er     0.75   0.375   0.9782
Er12     Er     0.75   0.875   0.9782
Ti13     Ti     0.3838   0.0737   0.9484
Ti14     Ti     0.3838   0.5737   0.9484
Ti15     Ti     0.8838   0.0737   0.9484
Ti16     Ti     0.8838   0.5737   0.9484
Ti17     Ti     0.1163   0.1763   0.9484
Ti18     Ti     0.1163   0.6763   0.9484
Ti19     Ti     0.6163   0.1763   0.9484
Ti20     Ti     0.6163   0.6763   0.9484
Er21     Er     0.25   0.125   0.0219
Er22     Er     0.25   0.625   0.0219
Er23     Er     0.75   0.125   0.0219
Er24     Er     0.75   0.625   0.0219
V25     V     0.25   0.375   0.125
V26     V     0.25   0.875   0.125
V27     V     0.75   0.375   0.125
V28     V     0.75   0.875   0.125
Ti29     Ti     0.3013   0.0088   0.1984
Ti30     Ti     0.3013   0.5088   0.1984
Ti31     Ti     0.8013   0.0088   0.1984
Ti32     Ti     0.8013   0.5088   0.1984
Ti33     Ti     0.1987   0.2412   0.1984
Ti34     Ti     0.1987   0.7412   0.1984
Ti35     Ti     0.6987   0.2412   0.1984
Ti36     Ti     0.6987   0.7412   0.1984
Er37     Er     0.25   0.375   0.2719
Er38     Er     0.25   0.875   0.2719
Er39     Er     0.75   0.375   0.2719
Er40     Er     0.75   0.875   0.2719
Ti41     Ti     0.0513   0.0088   0.3016
Ti42     Ti     0.0513   0.5088   0.3016
Ti43     Ti     0.5513   0.0088   0.3016
Ti44     Ti     0.5513   0.5088   0.3016
Ti45     Ti     0.4487   0.2412   0.3016
Ti46     Ti     0.4487   0.7412   0.3016
Ti47     Ti     0.9487   0.2412   0.3016
Ti48     Ti     0.9487   0.7412   0.3016
Er49     Er     0.0   0.375   0.2282
Er50     Er     0.0   0.875   0.2282
Er51     Er     0.5   0.375   0.2282
Er52     Er     0.5   0.875   0.2282
V53     V     0.0   0.375   0.375
V54     V     0.0   0.875   0.375
V55     V     0.5   0.375   0.375
V56     V     0.5   0.875   0.375
Ti57     Ti     0.3662   0.1763   0.5516
Ti58     Ti     0.3662   0.6763   0.5516
Ti59     Ti     0.8662   0.1763   0.5516
Ti60     Ti     0.8662   0.6763   0.5516
Ti61     Ti     0.1338   0.0737   0.5516
Ti62     Ti     0.1338   0.5737   0.5516
Ti63     Ti     0.6338   0.0737   0.5516
Ti64     Ti     0.6338   0.5737   0.5516
Er65     Er     0.0   0.125   0.4782
Er66     Er     0.0   0.625   0.4782
Er67     Er     0.5   0.125   0.4782
Er68     Er     0.5   0.625   0.4782
Ti69     Ti     0.1337   0.3237   0.4484
Ti70     Ti     0.1337   0.8237   0.4484
Ti71     Ti     0.6338   0.3237   0.4484
Ti72     Ti     0.6338   0.8237   0.4484
Ti73     Ti     0.3662   0.4263   0.4484
Ti74     Ti     0.3662   0.9263   0.4484
Ti75     Ti     0.8662   0.4263   0.4484
Ti76     Ti     0.8662   0.9263   0.4484
Er77     Er     0.0   0.375   0.5218
Er78     Er     0.0   0.875   0.5218
Er79     Er     0.5   0.375   0.5218
Er80     Er     0.5   0.875   0.5218
V81     V     0.25   0.125   0.875
V82     V     0.25   0.625   0.875
V83     V     0.75   0.125   0.875
V84     V     0.75   0.625   0.875
V85     V     0.0   0.125   0.625
V86     V     0.0   0.625   0.625
V87     V     0.5   0.125   0.625
V88     V     0.5   0.625   0.625
Ti89     Ti     0.1987   0.4913   0.8016
Ti90     Ti     0.1987   0.9912   0.8016
Ti91     Ti     0.6987   0.4913   0.8016
Ti92     Ti     0.6987   0.9912   0.8016
Ti93     Ti     0.3013   0.2588   0.8016
Ti94     Ti     0.3013   0.7588   0.8016
Ti95     Ti     0.8013   0.2588   0.8016
Ti96     Ti     0.8013   0.7588   0.8016
Er97     Er     0.25   0.125   0.7282
Er98     Er     0.25   0.625   0.7282
Er99     Er     0.75   0.125   0.7282
Er100     Er     0.75   0.625   0.7282
Ti101     Ti     0.0513   0.2588   0.6984
Ti102     Ti     0.0513   0.7588   0.6984
Ti103     Ti     0.5513   0.2588   0.6984
Ti104     Ti     0.5513   0.7588   0.6984
Ti105     Ti     0.4487   0.4913   0.6984
Ti106     Ti     0.4487   0.9912   0.6984
Ti107     Ti     0.9487   0.4913   0.6984
Ti108     Ti     0.9487   0.9912   0.6984
Er109     Er     0.0   0.125   0.7718
Er110     Er     0.0   0.625   0.7718
Er111     Er     0.5   0.125   0.7718
Er112     Er     0.5   0.625   0.7718
loop_
_geom_bond_atom_site_label_1
_geom_bond_atom_site_label_2
_geom_bond_distance
_geom_bond_site_symmetry_2
_ccdc_geom_bond_type
Ti1     Er9    9.999   1_554     S
Ti1     Ti7    10.0   .     S
Ti1     Er21    10.0   .     S
Ti1     V25    10.0   .     S
Ti2     Er10    9.999   1_554     S
Ti2     Ti8    10.0   .     S
Ti2     Er22    10.0   .     S
Ti2     V26    10.0   .     S
Ti3     Er11    9.999   1_554     S
Ti3     Ti5    10.0   1_655     S
Ti3     Er23    10.0   .     S
Ti3     V27    10.0   .     S
Ti4     Er12    9.999   1_554     S
Ti4     Ti6    10.0   1_655     S
Ti4     Er24    10.0   .     S
Ti4     V28    10.0   .     S
Ti5     Er9    9.999   1_554     S
Ti5     Ti3    10.0   1_455     S
Ti5     Er22    10.0   .     S
Ti5     V25    10.0   .     S
Ti6     Er10    9.999   1_554     S
Ti6     Ti4    10.0   1_455     S
Ti6     Er21    10.0   1_565     S
Ti6     V26    10.0   .     S
Ti7     Er11    9.999   1_554     S
Ti7     Er24    10.0   .     S
Ti7     V27    10.0   .     S
Ti8     Er12    9.999   1_554     S
Ti8     Er23    10.0   1_565     S
Ti8     V28    10.0   .     S
Er9     Ti1    9.999   1_556     S
Er9     Ti5    9.999   1_556     S
Er9     Ti17    10.0   .     S
Er9     Ti14    10.0   .     S
Er10     Ti2    9.999   1_556     S
Er10     Ti6    9.999   1_556     S
Er10     Ti18    10.0   .     S
Er10     Ti13    10.0   1_565     S
Er11     Ti3    9.999   1_556     S
Er11     Ti7    9.999   1_556     S
Er11     Ti19    10.0   .     S
Er11     Ti16    10.0   .     S
Er12     Ti4    9.999   1_556     S
Er12     Ti8    9.999   1_556     S
Er12     Ti20    10.0   .     S
Er12     Ti15    10.0   1_565     S
Ti13     Er10    10.0   1_545     S
Ti13     Er21    9.999   1_556     S
Ti13     Ti19    10.0   .     S
Ti13     V81    10.0   .     S
Ti14     Er22    9.999   1_556     S
Ti14     Ti20    10.0   .     S
Ti14     V82    10.0   .     S
Ti15     Er12    10.0   1_545     S
Ti15     Er23    9.999   1_556     S
Ti15     Ti17    10.0   1_655     S
Ti15     V83    10.0   .     S
Ti16     Er24    9.999   1_556     S
Ti16     Ti18    10.0   1_655     S
Ti16     V84    10.0   .     S
Ti17     Er21    9.999   1_556     S
Ti17     Ti15    10.0   1_455     S
Ti17     V81    10.0   .     S
Ti18     Er22    9.999   1_556     S
Ti18     Ti16    10.0   1_455     S
Ti18     V82    10.0   .     S
Ti19     Er23    9.999   1_556     S
Ti19     V83    10.0   .     S
Ti20     Er24    9.999   1_556     S
Ti20     V84    10.0   .     S
Er21     Ti13    9.999   1_554     S
Er21     Ti17    9.999   1_554     S
Er21     Ti6    10.0   1_545     S
Er22     Ti14    9.999   1_554     S
Er22     Ti18    9.999   1_554     S
Er23     Ti15    9.999   1_554     S
Er23     Ti19    9.999   1_554     S
Er23     Ti8    10.0   1_545     S
Er24     Ti16    9.999   1_554     S
Er24     Ti20    9.999   1_554     S
V25     Ti33    10.0   .     S
V25     Ti30    10.0   .     S
V26     Ti34    10.0   .     S
V26     Ti29    10.0   1_565     S
V27     Ti35    10.0   .     S
V27     Ti32    10.0   .     S
V28     Ti36    10.0   .     S
V28     Ti31    10.0   1_565     S
Ti29     V26    10.0   1_545     S
Ti29     Er38    9.999   1_545     S
Ti29     Ti33    10.0   .     S
Ti29     Er52    10.0   1_545     S
Ti30     Er37    9.999   .     S
Ti30     Ti34    10.0   .     S
Ti30     Er51    10.0   .     S
Ti31     V28    10.0   1_545     S
Ti31     Er40    9.999   1_545     S
Ti31     Ti35    10.0   .     S
Ti31     Er50    10.0   1_645     S
Ti32     Er39    9.999   .     S
Ti32     Ti36    10.0   .     S
Ti32     Er49    10.0   1_655     S
Ti33     Er37    9.999   .     S
Ti33     Er49    10.0   .     S
Ti34     Er38    9.999   .     S
Ti34     Er50    10.0   .     S
Ti35     Er39    9.999   .     S
Ti35     Er51    10.0   .     S
Ti36     Er40    9.999   .     S
Ti36     Er52    10.0   .     S
Er37     Ti45    10.0   .     S
Er37     Ti42    10.0   .     S
Er38     Ti29    9.999   1_565     S
Er38     Ti46    10.0   .     S
Er38     Ti41    10.0   1_565     S
Er39     Ti47    10.0   .     S
Er39     Ti44    10.0   .     S
Er40     Ti31    9.999   1_565     S
Er40     Ti48    10.0   .     S
Er40     Ti43    10.0   1_565     S
Ti41     Er38    10.0   1_545     S
Ti41     Er50    9.999   1_545     S
Ti41     Ti47    10.0   1_455     S
Ti41     V54    10.0   1_545     S
Ti42     Er49    9.999   .     S
Ti42     Ti48    10.0   1_455     S
Ti42     V53    10.0   .     S
Ti43     Er40    10.0   1_545     S
Ti43     Er52    9.999   1_545     S
Ti43     Ti45    10.0   .     S
Ti43     V56    10.0   1_545     S
Ti44     Er51    9.999   .     S
Ti44     Ti46    10.0   .     S
Ti44     V55    10.0   .     S
Ti45     Er51    9.999   .     S
Ti45     V55    10.0   .     S
Ti46     Er52    9.999   .     S
Ti46     V56    10.0   .     S
Ti47     Er49    9.999   1_655     S
Ti47     Ti41    10.0   1_655     S
Ti47     V53    10.0   1_655     S
Ti48     Er50    9.999   1_655     S
Ti48     Ti42    10.0   1_655     S
Ti48     V54    10.0   1_655     S
Er49     Ti47    9.999   1_455     S
Er49     Ti32    10.0   1_455     S
Er50     Ti41    9.999   1_565     S
Er50     Ti48    9.999   1_455     S
Er50     Ti31    10.0   1_465     S
Er52     Ti43    9.999   1_565     S
Er52     Ti29    10.0   1_565     S
V53     Ti69    10.0   .     S
V53     Ti47    10.0   1_455     S
V53     Ti75    10.0   1_455     S
V54     Ti70    10.0   .     S
V54     Ti48    10.0   1_455     S
V54     Ti76    10.0   1_455     S
V54     Ti41    10.0   1_565     S
V55     Ti71    10.0   .     S
V55     Ti73    10.0   .     S
V56     Ti72    10.0   .     S
V56     Ti74    10.0   .     S
V56     Ti43    10.0   1_565     S
Ti57     Er67    9.999   .     S
Ti57     Ti61    10.0   .     S
Ti57     Er79    10.0   .     S
Ti57     V87    10.0   .     S
Ti58     Er68    9.999   .     S
Ti58     Ti62    10.0   .     S
Ti58     Er80    10.0   .     S
Ti58     V88    10.0   .     S
Ti59     Er65    9.999   1_655     S
Ti59     Ti63    10.0   .     S
Ti59     Er77    10.0   1_655     S
Ti59     V85    10.0   1_655     S
Ti60     Er66    9.999   1_655     S
Ti60     Ti64    10.0   .     S
Ti60     Er78    10.0   1_655     S
Ti60     V86    10.0   1_655     S
Ti61     Er65    9.999   .     S
Ti61     Er78    10.0   1_545     S
Ti61     V85    10.0   .     S
Ti62     Er66    9.999   .     S
Ti62     Er77    10.0   .     S
Ti62     V86    10.0   .     S
Ti63     Er67    9.999   .     S
Ti63     Er80    10.0   1_545     S
Ti63     V87    10.0   .     S
Ti64     Er68    9.999   .     S
Ti64     Er79    10.0   .     S
Ti64     V88    10.0   .     S
Er65     Ti59    9.999   1_455     S
Er65     Ti69    10.0   .     S
Er65     Ti76    10.0   1_445     S
Er66     Ti60    9.999   1_455     S
Er66     Ti70    10.0   .     S
Er66     Ti75    10.0   1_455     S
Er67     Ti71    10.0   .     S
Er67     Ti74    10.0   1_545     S
Er68     Ti72    10.0   .     S
Er68     Ti73    10.0   .     S
Ti69     Er77    9.999   .     S
Ti69     Ti73    10.0   .     S
Ti70     Er78    9.999   .     S
Ti70     Ti74    10.0   .     S
Ti71     Er79    9.999   .     S
Ti71     Ti75    10.0   .     S
Ti72     Er80    9.999   .     S
Ti72     Ti76    10.0   .     S
Ti73     Er79    9.999   .     S
Ti74     Er67    10.0   1_565     S
Ti74     Er80    9.999   .     S
Ti75     V53    10.0   1_655     S
Ti75     Er66    10.0   1_655     S
Ti75     Er77    9.999   1_655     S
Ti76     V54    10.0   1_655     S
Ti76     Er65    10.0   1_665     S
Ti76     Er78    9.999   1_655     S
Er77     Ti75    9.999   1_455     S
Er77     Ti59    10.0   1_455     S
Er78     Ti76    9.999   1_455     S
Er78     Ti61    10.0   1_565     S
Er78     Ti60    10.0   1_455     S
Er80     Ti63    10.0   1_565     S
V81     Ti90    10.0   1_545     S
V81     Ti93    10.0   .     S
V82     Ti89    10.0   .     S
V82     Ti94    10.0   .     S
V83     Ti92    10.0   1_545     S
V83     Ti95    10.0   .     S
V84     Ti91    10.0   .     S
V84     Ti96    10.0   .     S
V85     Ti101    10.0   .     S
V85     Ti59    10.0   1_455     S
V85     Ti108    10.0   1_445     S
V86     Ti102    10.0   .     S
V86     Ti60    10.0   1_455     S
V86     Ti107    10.0   1_455     S
V87     Ti103    10.0   .     S
V87     Ti106    10.0   1_545     S
V88     Ti104    10.0   .     S
V88     Ti105    10.0   .     S
Ti89     Er98    9.999   .     S
Ti89     Ti93    10.0   .     S
Ti89     Er110    10.0   .     S
Ti90     V81    10.0   1_565     S
Ti90     Er97    9.999   1_565     S
Ti90     Ti94    10.0   .     S
Ti90     Er109    10.0   1_565     S
Ti91     Er100    9.999   .     S
Ti91     Ti95    10.0   .     S
Ti91     Er112    10.0   .     S
Ti92     V83    10.0   1_565     S
Ti92     Er99    9.999   1_565     S
Ti92     Ti96    10.0   .     S
Ti92     Er111    10.0   1_565     S
Ti93     Er97    9.999   .     S
Ti93     Er111    10.0   .     S
Ti94     Er98    9.999   .     S
Ti94     Er112    10.0   .     S
Ti95     Er99    9.999   .     S
Ti95     Er109    10.0   1_655     S
Ti96     Er100    9.999   .     S
Ti96     Er110    10.0   1_655     S
Er97     Ti90    9.999   1_545     S
Er97     Ti101    10.0   .     S
Er97     Ti106    10.0   1_545     S
Er98     Ti102    10.0   .     S
Er98     Ti105    10.0   .     S
Er99     Ti92    9.999   1_545     S
Er99     Ti103    10.0   .     S
Er99     Ti108    10.0   1_545     S
Er100     Ti104    10.0   .     S
Er100     Ti107    10.0   .     S
Ti101     Er109    9.999   .     S
Ti101     Ti107    10.0   1_455     S
Ti102     Er110    9.999   .     S
Ti102     Ti108    10.0   1_455     S
Ti103     Er111    9.999   .     S
Ti103     Ti105    10.0   .     S
Ti104     Er112    9.999   .     S
Ti104     Ti106    10.0   .     S
Ti105     Er112    9.999   .     S
Ti106     V87    10.0   1_565     S
Ti106     Er97    10.0   1_565     S
Ti106     Er111    9.999   1_565     S
Ti107     V86    10.0   1_655     S
Ti107     Er110    9.999   1_655     S
Ti107     Ti101    10.0   1_655     S
Ti108     V85    10.0   1_665     S
Ti108     Er99    10.0   1_565     S
Ti108     Er109    9.999   1_665     S
Ti108     Ti102    10.0   1_655     S
Er109     Ti108    9.999   1_445     S
Er109     Ti95    10.0   1_455     S
Er109     Ti90    10.0   1_545     S
Er110     Ti107    9.999   1_455     S
Er110     Ti96    10.0   1_455     S
Er111     Ti106    9.999   1_545     S
Er111     Ti92    10.0   1_545     S
