data_jus
_audit_creation_date              2019-12-31
_audit_creation_method            'Pymatgen'
_symmetry_space_group_name_H-M    'P1'
_symmetry_Int_Tables_number       1
loop_
_symmetry_equiv_pos_as_xyz
  x,y,z
_cell_length_a                    24.2046
_cell_length_b                    30.5441
_cell_length_c                    36.1836
_cell_angle_alpha                 90.0
_cell_angle_beta                 90.0
_cell_angle_gamma                 90.0
loop_
_atom_site_label
_atom_site_type_symbol
_atom_site_fract_x
_atom_site_fract_y
_atom_site_fract_z
V1     V     0.0   0.1495   0.125
V2     V     0.0   0.1495   0.625
Er3     Er     0.1748   0.1471   0.375
Er4     Er     0.1748   0.1471   0.875
Er5     Er     0.8252   0.1471   0.375
Er6     Er     0.8252   0.1471   0.875
V7     V     0.0   0.8505   0.375
V8     V     0.0   0.8505   0.875
Er9     Er     0.1748   0.8529   0.125
Er10     Er     0.1748   0.8529   0.625
Er11     Er     0.8252   0.8529   0.125
Er12     Er     0.8252   0.8529   0.625
V13     V     0.5   0.6495   0.125
V14     V     0.5   0.6495   0.625
Er15     Er     0.6748   0.6471   0.375
Er16     Er     0.6748   0.6471   0.875
Er17     Er     0.3252   0.6471   0.375
Er18     Er     0.3252   0.6471   0.875
V19     V     0.5   0.3505   0.375
V20     V     0.5   0.3505   0.875
Er21     Er     0.3252   0.3529   0.125
Er22     Er     0.3252   0.3529   0.625
Er23     Er     0.6748   0.3529   0.125
Er24     Er     0.6748   0.3529   0.625
loop_
_geom_bond_atom_site_label_1
_geom_bond_atom_site_label_2
_geom_bond_distance
_geom_bond_site_symmetry_2
_ccdc_geom_bond_type
V1     Er23    10.027   1_455     S
V1     Er21    10.027   .     S
V1     Er5    9.987   1_455     S
V1     Er3    9.987   .     S
V1     Er4    9.987   1_554     S
V1     Er6    9.987   1_454     S
V1     Er9    9.999   1_545     S
V1     Er11    9.999   1_445     S
V2     Er24    10.027   1_455     S
V2     Er22    10.027   .     S
V2     Er6    9.987   1_455     S
V2     Er4    9.987   .     S
V2     Er3    9.987   .     S
V2     Er5    9.987   1_455     S
V2     Er10    9.999   1_545     S
V2     Er12    9.999   1_445     S
Er3     V19    10.027   .     S
Er3     V7    9.999   1_545     S
Er4     V20    10.027   .     S
Er4     V8    9.999   1_545     S
Er4     V1    9.987   1_556     S
Er5     V19    10.027   .     S
Er5     V7    9.999   1_645     S
Er5     V1    9.987   1_655     S
Er5     V2    9.987   1_655     S
Er6     V20    10.027   .     S
Er6     V8    9.999   1_645     S
Er6     V2    9.987   1_655     S
Er6     V1    9.987   1_656     S
V7     Er15    10.027   1_455     S
V7     Er17    10.027   .     S
V7     Er5    9.999   1_465     S
V7     Er3    9.999   1_565     S
V7     Er11    9.987   1_455     S
V7     Er9    9.987   .     S
V7     Er10    9.987   .     S
V7     Er12    9.987   1_455     S
V8     Er16    10.027   1_455     S
V8     Er18    10.027   .     S
V8     Er6    9.999   1_465     S
V8     Er4    9.999   1_565     S
V8     Er12    9.987   1_455     S
V8     Er10    9.987   .     S
V8     Er9    9.987   1_556     S
V8     Er11    9.987   1_456     S
Er9     V13    10.027   .     S
Er9     V1    9.999   1_565     S
Er9     V8    9.987   1_554     S
Er10     V14    10.027   .     S
Er10     V2    9.999   1_565     S
Er11     V13    10.027   .     S
Er11     V1    9.999   1_665     S
Er11     V7    9.987   1_655     S
Er11     V8    9.987   1_654     S
Er12     V14    10.027   .     S
Er12     V2    9.999   1_665     S
Er12     V8    9.987   1_655     S
Er12     V7    9.987   1_655     S
V13     Er17    9.987   .     S
V13     Er15    9.987   .     S
V13     Er16    9.987   1_554     S
V13     Er18    9.987   1_554     S
V13     Er23    9.999   .     S
V13     Er21    9.999   .     S
V14     Er18    9.987   .     S
V14     Er16    9.987   .     S
V14     Er15    9.987   .     S
V14     Er17    9.987   .     S
V14     Er24    9.999   .     S
V14     Er22    9.999   .     S
Er15     V7    10.027   1_655     S
Er15     V19    9.999   .     S
Er16     V8    10.027   1_655     S
Er16     V20    9.999   .     S
Er16     V13    9.987   1_556     S
Er17     V19    9.999   .     S
Er18     V20    9.999   .     S
Er18     V13    9.987   1_556     S
V19     Er24    9.987   .     S
V19     Er22    9.987   .     S
V19     Er21    9.987   .     S
V19     Er23    9.987   .     S
V20     Er23    9.987   1_556     S
V20     Er21    9.987   1_556     S
V20     Er22    9.987   .     S
V20     Er24    9.987   .     S
Er21     V20    9.987   1_554     S
Er23     V1    10.027   1_655     S
Er23     V20    9.987   1_554     S
Er24     V2    10.027   1_655     S
