data_jwj
_audit_creation_date              2019-12-31
_audit_creation_method            'Pymatgen'
_symmetry_space_group_name_H-M    'P1'
_symmetry_Int_Tables_number       1
loop_
_symmetry_equiv_pos_as_xyz
  x,y,z
_cell_length_a                    43.8196
_cell_length_b                    40.0002
_cell_length_c                    42.4723
_cell_angle_alpha                 90.0
_cell_angle_beta                 90.0
_cell_angle_gamma                 90.0
loop_
_atom_site_label
_atom_site_type_symbol
_atom_site_fract_x
_atom_site_fract_y
_atom_site_fract_z
V1     V     0.75   0.1875   0.25
V2     V     0.75   0.6875   0.25
V3     V     0.25   0.1875   0.25
V4     V     0.25   0.6875   0.25
Er5     Er     0.8859   0.1875   0.602
Er6     Er     0.8859   0.6875   0.602
Er7     Er     0.8859   0.3125   0.398
Er8     Er     0.8859   0.8125   0.398
Er9     Er     0.1141   0.3125   0.398
Er10     Er     0.1141   0.8125   0.398
Er11     Er     0.1141   0.1875   0.602
Er12     Er     0.1141   0.6875   0.602
Ti13     Ti     0.8859   0.0625   0.398
Ti14     Ti     0.8859   0.5625   0.398
Ti15     Ti     0.1141   0.0625   0.398
Ti16     Ti     0.1141   0.5625   0.398
Ti17     Ti     0.8859   0.4375   0.602
Ti18     Ti     0.8859   0.9375   0.602
Ti19     Ti     0.1141   0.4375   0.602
Ti20     Ti     0.1141   0.9375   0.602
V21     V     0.75   0.3125   0.75
V22     V     0.75   0.8125   0.75
V23     V     0.25   0.3125   0.75
V24     V     0.25   0.8125   0.75
Er25     Er     0.6141   0.3125   0.102
Er26     Er     0.6141   0.8125   0.102
Er27     Er     0.6141   0.1875   0.898
Er28     Er     0.6141   0.6875   0.898
Er29     Er     0.3859   0.1875   0.898
Er30     Er     0.3859   0.6875   0.898
Er31     Er     0.3859   0.3125   0.1019
Er32     Er     0.3859   0.8125   0.1019
Ti33     Ti     0.3859   0.0625   0.102
Ti34     Ti     0.3859   0.5625   0.102
Ti35     Ti     0.6141   0.0625   0.102
Ti36     Ti     0.6141   0.5625   0.102
Ti37     Ti     0.3859   0.4375   0.898
Ti38     Ti     0.3859   0.9375   0.898
Ti39     Ti     0.6141   0.4375   0.898
Ti40     Ti     0.6141   0.9375   0.898
loop_
_geom_bond_atom_site_label_1
_geom_bond_atom_site_label_2
_geom_bond_distance
_geom_bond_site_symmetry_2
_ccdc_geom_bond_type
V1     Ti35    10.0   .     S
V1     Ti13    10.0   .     S
V1     Er7    10.0   .     S
V1     Er25    10.0   .     S
V2     Ti36    10.0   .     S
V2     Ti14    10.0   .     S
V2     Er8    10.0   .     S
V2     Er26    10.0   .     S
V3     Ti15    10.0   .     S
V3     Ti33    10.0   .     S
V3     Er9    10.0   .     S
V3     Er31    10.0   .     S
V4     Ti16    10.0   .     S
V4     Ti34    10.0   .     S
V4     Er10    10.0   .     S
V4     Er32    10.0   .     S
Er5     V21    10.0   .     S
Er5     Er7    10.0   .     S
Er5     Ti17    10.0   .     S
Er5     Ti13    10.0   .     S
Er5     Ti18    10.0   1_545     S
Er5     Er11    10.001   1_655     S
Er6     V22    10.0   .     S
Er6     Er8    10.0   .     S
Er6     Ti18    10.0   .     S
Er6     Ti14    10.0   .     S
Er6     Ti17    10.0   .     S
Er6     Er12    10.001   1_655     S
Er7     Ti17    10.0   .     S
Er7     Ti13    10.0   .     S
Er7     Ti14    10.0   .     S
Er7     Er9    10.001   1_655     S
Er8     Ti18    10.0   .     S
Er8     Ti14    10.0   .     S
Er8     Ti13    10.0   1_565     S
Er8     Er10    10.001   1_655     S
Er9     Er11    10.0   .     S
Er9     Ti15    10.0   .     S
Er9     Ti19    10.0   .     S
Er9     Ti16    10.0   .     S
Er9     Er7    10.001   1_455     S
Er10     Er12    10.0   .     S
Er10     Ti16    10.0   .     S
Er10     Ti20    10.0   .     S
Er10     Ti15    10.0   1_565     S
Er10     Er8    10.001   1_455     S
Er11     V23    10.0   .     S
Er11     Ti15    10.0   .     S
Er11     Ti19    10.0   .     S
Er11     Ti20    10.0   1_545     S
Er11     Er5    10.001   1_455     S
Er12     V24    10.0   .     S
Er12     Ti16    10.0   .     S
Er12     Ti20    10.0   .     S
Er12     Ti19    10.0   .     S
Er12     Er6    10.001   1_455     S
Ti13     Ti15    10.0   1_655     S
Ti13     Ti18    10.0   1_545     S
Ti13     Er8    10.0   1_545     S
Ti14     Ti16    10.0   1_655     S
Ti14     Ti17    10.0   .     S
Ti15     Ti13    10.0   1_455     S
Ti15     Er10    10.0   1_545     S
Ti15     Ti20    10.0   1_545     S
Ti16     Ti14    10.0   1_455     S
Ti16     Ti19    10.0   .     S
Ti17     Ti19    10.0   1_655     S
Ti17     V21    10.0   .     S
Ti18     Ti20    10.0   1_655     S
Ti18     Ti13    10.0   1_565     S
Ti18     Er5    10.0   1_565     S
Ti18     V22    10.0   .     S
Ti19     Ti17    10.0   1_455     S
Ti19     V23    10.0   .     S
Ti20     Ti18    10.0   1_455     S
Ti20     Ti15    10.0   1_565     S
Ti20     Er11    10.0   1_565     S
Ti20     V24    10.0   .     S
V21     Ti39    10.0   .     S
V21     Er27    10.0   .     S
V22     Ti40    10.0   .     S
V22     Er28    10.0   .     S
V23     Ti37    10.0   .     S
V23     Er29    10.0   .     S
V24     Ti38    10.0   .     S
V24     Er30    10.0   .     S
Er25     Er27    10.0   1_554     S
Er25     Ti39    10.0   1_554     S
Er25     Ti35    10.0   .     S
Er25     Ti36    10.0   .     S
Er25     Er31    10.001   .     S
Er26     Er28    10.0   1_554     S
Er26     Ti40    10.0   1_554     S
Er26     Ti36    10.0   .     S
Er26     Ti35    10.0   1_565     S
Er26     Er32    10.001   .     S
Er27     Er25    10.0   1_556     S
Er27     Ti39    10.0   .     S
Er27     Ti40    10.0   1_545     S
Er27     Ti35    10.0   1_556     S
Er27     Er29    10.001   .     S
Er28     Er26    10.0   1_556     S
Er28     Ti40    10.0   .     S
Er28     Ti39    10.0   .     S
Er28     Ti36    10.0   1_556     S
Er28     Er30    10.001   .     S
Er29     Er31    10.0   1_556     S
Er29     Ti37    10.0   .     S
Er29     Ti38    10.0   1_545     S
Er29     Ti33    10.0   1_556     S
Er30     Er32    10.0   1_556     S
Er30     Ti38    10.0   .     S
Er30     Ti37    10.0   .     S
Er30     Ti34    10.0   1_556     S
Er31     Er29    10.0   1_554     S
Er31     Ti37    10.0   1_554     S
Er31     Ti33    10.0   .     S
Er31     Ti34    10.0   .     S
Er32     Er30    10.0   1_554     S
Er32     Ti38    10.0   1_554     S
Er32     Ti34    10.0   .     S
Er32     Ti33    10.0   1_565     S
Ti33     Ti35    10.0   .     S
Ti33     Ti38    10.0   1_544     S
Ti33     Er29    10.0   1_554     S
Ti33     Er32    10.0   1_545     S
Ti34     Ti36    10.0   .     S
Ti34     Ti37    10.0   1_554     S
Ti34     Er30    10.0   1_554     S
Ti35     Ti40    10.0   1_544     S
Ti35     Er27    10.0   1_554     S
Ti35     Er26    10.0   1_545     S
Ti36     Ti39    10.0   1_554     S
Ti36     Er28    10.0   1_554     S
Ti37     Ti39    10.0   .     S
Ti37     Er31    10.0   1_556     S
Ti37     Ti34    10.0   1_556     S
Ti38     Ti40    10.0   .     S
Ti38     Er32    10.0   1_556     S
Ti38     Ti33    10.0   1_566     S
Ti38     Er29    10.0   1_565     S
Ti39     Er25    10.0   1_556     S
Ti39     Ti36    10.0   1_556     S
Ti40     Er26    10.0   1_556     S
Ti40     Ti35    10.0   1_566     S
Ti40     Er27    10.0   1_565     S
