data_kag
_audit_creation_date              2019-12-31
_audit_creation_method            'Pymatgen'
_symmetry_space_group_name_H-M    'P1'
_symmetry_Int_Tables_number       1
loop_
_symmetry_equiv_pos_as_xyz
  x,y,z
_cell_length_a                    40.0
_cell_length_b                    40.0
_cell_length_c                    30.0
_cell_angle_alpha                 90.0
_cell_angle_beta                 90.0
_cell_angle_gamma                 120.0
loop_
_atom_site_label
_atom_site_type_symbol
_atom_site_fract_x
_atom_site_fract_y
_atom_site_fract_z
V1     V     0.25   0.25   0.0
V2     V     0.25   0.25   0.3333
V3     V     0.25   0.25   0.6667
V4     V     0.25   0.75   0.0
V5     V     0.25   0.75   0.3333
V6     V     0.25   0.75   0.6667
V7     V     0.75   0.25   0.0
V8     V     0.75   0.25   0.3333
V9     V     0.75   0.25   0.6667
V10     V     0.75   0.75   0.0
V11     V     0.75   0.75   0.3333
V12     V     0.75   0.75   0.6667
V13     V     0.0   0.25   0.0
V14     V     0.0   0.25   0.3333
V15     V     0.0   0.25   0.6667
V16     V     1.0   0.75   0.0
V17     V     1.0   0.75   0.3333
V18     V     1.0   0.75   0.6667
V19     V     0.5   0.25   0.0
V20     V     0.5   0.25   0.3333
V21     V     0.5   0.25   0.6667
V22     V     0.5   0.75   0.0
V23     V     0.5   0.75   0.3333
V24     V     0.5   0.75   0.6667
V25     V     0.25   0.0   0.0
V26     V     0.25   0.0   0.3333
V27     V     0.25   0.0   0.6667
V28     V     0.25   0.5   0.0
V29     V     0.25   0.5   0.3333
V30     V     0.25   0.5   0.6667
V31     V     0.75   0.0   0.0
V32     V     0.75   0.0   0.3333
V33     V     0.75   0.0   0.6667
V34     V     0.75   0.5   0.0
V35     V     0.75   0.5   0.3333
V36     V     0.75   0.5   0.6667
loop_
_geom_bond_atom_site_label_1
_geom_bond_atom_site_label_2
_geom_bond_distance
_geom_bond_site_symmetry_2
_ccdc_geom_bond_type
V1     V19    10.0   .     S
V1     V25    10.0   .     S
V1     V28    10.0   .     S
V1     V13    10.0   .     S
V1     V2    10.0   .     S
V1     V3    10.0   1_554     S
V2     V20    10.0   .     S
V2     V26    10.0   .     S
V2     V29    10.0   .     S
V2     V14    10.0   .     S
V2     V3    10.0   .     S
V3     V21    10.0   .     S
V3     V27    10.0   .     S
V3     V30    10.0   .     S
V3     V15    10.0   .     S
V3     V1    10.0   1_556     S
V4     V22    10.0   .     S
V4     V28    10.0   .     S
V4     V25    10.0   1_565     S
V4     V16    10.0   1_455     S
V4     V5    10.0   .     S
V4     V6    10.0   1_554     S
V5     V23    10.0   .     S
V5     V29    10.0   .     S
V5     V26    10.0   1_565     S
V5     V17    10.0   1_455     S
V5     V6    10.0   .     S
V6     V24    10.0   .     S
V6     V30    10.0   .     S
V6     V27    10.0   1_565     S
V6     V18    10.0   1_455     S
V6     V4    10.0   1_556     S
V7     V13    10.0   1_655     S
V7     V31    10.0   .     S
V7     V34    10.0   .     S
V7     V19    10.0   .     S
V7     V8    10.0   .     S
V7     V9    10.0   1_554     S
V8     V14    10.0   1_655     S
V8     V32    10.0   .     S
V8     V35    10.0   .     S
V8     V20    10.0   .     S
V8     V9    10.0   .     S
V9     V15    10.0   1_655     S
V9     V33    10.0   .     S
V9     V36    10.0   .     S
V9     V21    10.0   .     S
V9     V7    10.0   1_556     S
V10     V16    10.0   .     S
V10     V34    10.0   .     S
V10     V31    10.0   1_565     S
V10     V22    10.0   .     S
V10     V11    10.0   .     S
V10     V12    10.0   1_554     S
V11     V17    10.0   .     S
V11     V35    10.0   .     S
V11     V32    10.0   1_565     S
V11     V23    10.0   .     S
V11     V12    10.0   .     S
V12     V18    10.0   .     S
V12     V36    10.0   .     S
V12     V33    10.0   1_565     S
V12     V24    10.0   .     S
V12     V10    10.0   1_556     S
V13     V31    10.0   1_455     S
V13     V7    10.0   1_455     S
V13     V28    10.0   .     S
V13     V14    10.0   .     S
V13     V15    10.0   1_554     S
V14     V32    10.0   1_455     S
V14     V8    10.0   1_455     S
V14     V29    10.0   .     S
V14     V15    10.0   .     S
V15     V33    10.0   1_455     S
V15     V9    10.0   1_455     S
V15     V30    10.0   .     S
V15     V13    10.0   1_556     S
V16     V34    10.0   .     S
V16     V4    10.0   1_655     S
V16     V25    10.0   1_665     S
V16     V17    10.0   .     S
V16     V18    10.0   1_554     S
V17     V35    10.0   .     S
V17     V5    10.0   1_655     S
V17     V26    10.0   1_665     S
V17     V18    10.0   .     S
V18     V36    10.0   .     S
V18     V6    10.0   1_655     S
V18     V27    10.0   1_665     S
V18     V16    10.0   1_556     S
V19     V25    10.0   .     S
V19     V34    10.0   .     S
V19     V20    10.0   .     S
V19     V21    10.0   1_554     S
V20     V26    10.0   .     S
V20     V35    10.0   .     S
V20     V21    10.0   .     S
V21     V27    10.0   .     S
V21     V36    10.0   .     S
V21     V19    10.0   1_556     S
V22     V28    10.0   .     S
V22     V31    10.0   1_565     S
V22     V23    10.0   .     S
V22     V24    10.0   1_554     S
V23     V29    10.0   .     S
V23     V32    10.0   1_565     S
V23     V24    10.0   .     S
V24     V30    10.0   .     S
V24     V33    10.0   1_565     S
V24     V22    10.0   1_556     S
V25     V4    10.0   1_545     S
V25     V16    10.0   1_445     S
V25     V26    10.0   .     S
V25     V27    10.0   1_554     S
V26     V5    10.0   1_545     S
V26     V17    10.0   1_445     S
V26     V27    10.0   .     S
V27     V6    10.0   1_545     S
V27     V18    10.0   1_445     S
V27     V25    10.0   1_556     S
V28     V29    10.0   .     S
V28     V30    10.0   1_554     S
V29     V30    10.0   .     S
V30     V28    10.0   1_556     S
V31     V13    10.0   1_655     S
V31     V10    10.0   1_545     S
V31     V22    10.0   1_545     S
V31     V32    10.0   .     S
V31     V33    10.0   1_554     S
V32     V14    10.0   1_655     S
V32     V11    10.0   1_545     S
V32     V23    10.0   1_545     S
V32     V33    10.0   .     S
V33     V15    10.0   1_655     S
V33     V12    10.0   1_545     S
V33     V24    10.0   1_545     S
V33     V31    10.0   1_556     S
V34     V35    10.0   .     S
V34     V36    10.0   1_554     S
V35     V36    10.0   .     S
V36     V34    10.0   1_556     S
