data_keb
_audit_creation_date              2019-12-31
_audit_creation_method            'Pymatgen'
_symmetry_space_group_name_H-M    'P1'
_symmetry_Int_Tables_number       1
loop_
_symmetry_equiv_pos_as_xyz
  x,y,z
_cell_length_a                    30.0
_cell_length_b                    30.0
_cell_length_c                    34.142
_cell_angle_alpha                 90.0
_cell_angle_beta                 90.0
_cell_angle_gamma                 90.0
loop_
_atom_site_label
_atom_site_type_symbol
_atom_site_fract_x
_atom_site_fract_y
_atom_site_fract_z
Er1     Er     0.0   0.0   0.7071
Er2     Er     0.0   0.3333   0.7071
Er3     Er     0.0   0.6667   0.7071
Er4     Er     0.3333   0.0   0.7071
Er5     Er     0.3333   0.3333   0.7071
Er6     Er     0.3333   0.6667   0.7071
Er7     Er     0.6667   0.0   0.7071
Er8     Er     0.6667   0.3333   0.7071
Er9     Er     0.6667   0.6667   0.7071
Er10     Er     0.0   0.0   0.2929
Er11     Er     0.0   0.3333   0.2929
Er12     Er     0.0   0.6667   0.2929
Er13     Er     0.3333   0.0   0.2929
Er14     Er     0.3333   0.3333   0.2929
Er15     Er     0.3333   0.6667   0.2929
Er16     Er     0.6667   0.0   0.2929
Er17     Er     0.6667   0.3333   0.2929
Er18     Er     0.6667   0.6667   0.2929
V19     V     0.0   0.0   0.0
V20     V     0.0   0.3333   0.0
V21     V     0.0   0.6667   0.0
V22     V     0.3333   0.0   0.0
V23     V     0.3333   0.3333   0.0
V24     V     0.3333   0.6667   0.0
V25     V     0.6667   0.0   0.0
V26     V     0.6667   0.3333   0.0
V27     V     0.6667   0.6667   0.0
Er28     Er     0.1667   0.1667   0.7929
Er29     Er     0.1667   0.5   0.7929
Er30     Er     0.1667   0.8333   0.7929
Er31     Er     0.5   0.1667   0.7929
Er32     Er     0.5   0.5   0.7929
Er33     Er     0.5   0.8333   0.7929
Er34     Er     0.8333   0.1667   0.7929
Er35     Er     0.8333   0.5   0.7929
Er36     Er     0.8333   0.8333   0.7929
Er37     Er     0.1667   0.1667   0.2071
Er38     Er     0.1667   0.5   0.2071
Er39     Er     0.1667   0.8333   0.2071
Er40     Er     0.5   0.1667   0.2071
Er41     Er     0.5   0.5   0.2071
Er42     Er     0.5   0.8333   0.2071
Er43     Er     0.8333   0.1667   0.2071
Er44     Er     0.8333   0.5   0.2071
Er45     Er     0.8333   0.8333   0.2071
V46     V     0.1667   0.1667   0.5
V47     V     0.1667   0.5   0.5
V48     V     0.1667   0.8333   0.5
V49     V     0.5   0.1667   0.5
V50     V     0.5   0.5   0.5
V51     V     0.5   0.8333   0.5
V52     V     0.8333   0.1667   0.5
V53     V     0.8333   0.5   0.5
V54     V     0.8333   0.8333   0.5
loop_
_geom_bond_atom_site_label_1
_geom_bond_atom_site_label_2
_geom_bond_distance
_geom_bond_site_symmetry_2
_ccdc_geom_bond_type
Er1     V19    10.0   1_556     S
Er1     V54    10.0   1_445     S
Er1     V48    10.0   1_545     S
Er1     V46    10.0   .     S
Er1     V52    10.0   1_455     S
Er2     V20    10.0   1_556     S
Er2     V52    10.0   1_455     S
Er2     V46    10.0   .     S
Er2     V47    10.0   .     S
Er2     V53    10.0   1_455     S
Er3     V21    10.0   1_556     S
Er3     V53    10.0   1_455     S
Er3     V47    10.0   .     S
Er3     V48    10.0   .     S
Er3     V54    10.0   1_455     S
Er4     V22    10.0   1_556     S
Er4     V48    10.0   1_545     S
Er4     V51    10.0   1_545     S
Er4     V49    10.0   .     S
Er4     V46    10.0   .     S
Er5     V23    10.0   1_556     S
Er5     V46    10.0   .     S
Er5     V49    10.0   .     S
Er5     V50    10.0   .     S
Er5     V47    10.0   .     S
Er6     V24    10.0   1_556     S
Er6     V47    10.0   .     S
Er6     V50    10.0   .     S
Er6     V51    10.0   .     S
Er6     V48    10.0   .     S
Er7     V25    10.0   1_556     S
Er7     V51    10.0   1_545     S
Er7     V54    10.0   1_545     S
Er7     V52    10.0   .     S
Er7     V49    10.0   .     S
Er8     V26    10.0   1_556     S
Er8     V49    10.0   .     S
Er8     V52    10.0   .     S
Er8     V53    10.0   .     S
Er8     V50    10.0   .     S
Er9     V27    10.0   1_556     S
Er9     V50    10.0   .     S
Er9     V53    10.0   .     S
Er9     V54    10.0   .     S
Er9     V51    10.0   .     S
Er10     V19    10.0   .     S
Er10     V52    10.0   1_455     S
Er10     V54    10.0   1_445     S
Er10     V48    10.0   1_545     S
Er10     V46    10.0   .     S
Er11     V20    10.0   .     S
Er11     V53    10.0   1_455     S
Er11     V52    10.0   1_455     S
Er11     V46    10.0   .     S
Er11     V47    10.0   .     S
Er12     V21    10.0   .     S
Er12     V54    10.0   1_455     S
Er12     V53    10.0   1_455     S
Er12     V47    10.0   .     S
Er12     V48    10.0   .     S
Er13     V22    10.0   .     S
Er13     V46    10.0   .     S
Er13     V48    10.0   1_545     S
Er13     V51    10.0   1_545     S
Er13     V49    10.0   .     S
Er14     V23    10.0   .     S
Er14     V47    10.0   .     S
Er14     V46    10.0   .     S
Er14     V49    10.0   .     S
Er14     V50    10.0   .     S
Er15     V24    10.0   .     S
Er15     V48    10.0   .     S
Er15     V47    10.0   .     S
Er15     V50    10.0   .     S
Er15     V51    10.0   .     S
Er16     V25    10.0   .     S
Er16     V49    10.0   .     S
Er16     V51    10.0   1_545     S
Er16     V54    10.0   1_545     S
Er16     V52    10.0   .     S
Er17     V26    10.0   .     S
Er17     V50    10.0   .     S
Er17     V49    10.0   .     S
Er17     V52    10.0   .     S
Er17     V53    10.0   .     S
Er18     V27    10.0   .     S
Er18     V51    10.0   .     S
Er18     V50    10.0   .     S
Er18     V53    10.0   .     S
Er18     V54    10.0   .     S
V19     Er30    10.0   1_544     S
V19     Er1    10.0   1_554     S
V19     Er28    10.0   1_554     S
V19     Er34    10.0   1_454     S
V19     Er36    10.0   1_444     S
V19     Er37    10.0   .     S
V19     Er43    10.0   1_455     S
V19     Er45    10.0   1_445     S
V19     Er39    10.0   1_545     S
V19     V20    10.0   .     S
V19     V21    10.0   1_545     S
V19     V22    10.0   .     S
V19     V25    10.0   1_455     S
V20     Er28    10.0   1_554     S
V20     Er2    10.0   1_554     S
V20     Er29    10.0   1_554     S
V20     Er35    10.0   1_454     S
V20     Er34    10.0   1_454     S
V20     Er38    10.0   .     S
V20     Er44    10.0   1_455     S
V20     Er43    10.0   1_455     S
V20     Er37    10.0   .     S
V20     V21    10.0   .     S
V20     V23    10.0   .     S
V20     V26    10.0   1_455     S
V21     Er29    10.0   1_554     S
V21     Er3    10.0   1_554     S
V21     Er30    10.0   1_554     S
V21     Er36    10.0   1_454     S
V21     Er35    10.0   1_454     S
V21     Er39    10.0   .     S
V21     Er45    10.0   1_455     S
V21     Er44    10.0   1_455     S
V21     Er38    10.0   .     S
V21     V19    10.0   1_565     S
V21     V24    10.0   .     S
V21     V27    10.0   1_455     S
V22     Er33    10.0   1_544     S
V22     Er4    10.0   1_554     S
V22     Er31    10.0   1_554     S
V22     Er28    10.0   1_554     S
V22     Er30    10.0   1_544     S
V22     Er40    10.0   .     S
V22     Er37    10.0   .     S
V22     Er39    10.0   1_545     S
V22     Er42    10.0   1_545     S
V22     V23    10.0   .     S
V22     V24    10.0   1_545     S
V22     V25    10.0   .     S
V23     Er31    10.0   1_554     S
V23     Er5    10.0   1_554     S
V23     Er32    10.0   1_554     S
V23     Er29    10.0   1_554     S
V23     Er28    10.0   1_554     S
V23     Er41    10.0   .     S
V23     Er38    10.0   .     S
V23     Er37    10.0   .     S
V23     Er40    10.0   .     S
V23     V24    10.0   .     S
V23     V26    10.0   .     S
V24     Er32    10.0   1_554     S
V24     Er6    10.0   1_554     S
V24     Er33    10.0   1_554     S
V24     Er30    10.0   1_554     S
V24     Er29    10.0   1_554     S
V24     Er42    10.0   .     S
V24     Er39    10.0   .     S
V24     Er38    10.0   .     S
V24     Er41    10.0   .     S
V24     V22    10.0   1_565     S
V24     V27    10.0   .     S
V25     Er36    10.0   1_544     S
V25     Er7    10.0   1_554     S
V25     Er34    10.0   1_554     S
V25     Er31    10.0   1_554     S
V25     Er33    10.0   1_544     S
V25     Er43    10.0   .     S
V25     Er40    10.0   .     S
V25     Er42    10.0   1_545     S
V25     Er45    10.0   1_545     S
V25     V26    10.0   .     S
V25     V27    10.0   1_545     S
V25     V19    10.0   1_655     S
V26     Er34    10.0   1_554     S
V26     Er8    10.0   1_554     S
V26     Er35    10.0   1_554     S
V26     Er32    10.0   1_554     S
V26     Er31    10.0   1_554     S
V26     Er44    10.0   .     S
V26     Er41    10.0   .     S
V26     Er40    10.0   .     S
V26     Er43    10.0   .     S
V26     V27    10.0   .     S
V26     V20    10.0   1_655     S
V27     Er35    10.0   1_554     S
V27     Er9    10.0   1_554     S
V27     Er36    10.0   1_554     S
V27     Er33    10.0   1_554     S
V27     Er32    10.0   1_554     S
V27     Er45    10.0   .     S
V27     Er42    10.0   .     S
V27     Er41    10.0   .     S
V27     Er44    10.0   .     S
V27     V25    10.0   1_565     S
V27     V21    10.0   1_655     S
Er28     V20    10.0   1_556     S
Er28     V19    10.0   1_556     S
Er28     V22    10.0   1_556     S
Er28     V23    10.0   1_556     S
Er28     V46    10.0   .     S
Er29     V21    10.0   1_556     S
Er29     V20    10.0   1_556     S
Er29     V23    10.0   1_556     S
Er29     V24    10.0   1_556     S
Er29     V47    10.0   .     S
Er30     V19    10.0   1_566     S
Er30     V21    10.0   1_556     S
Er30     V24    10.0   1_556     S
Er30     V22    10.0   1_566     S
Er30     V48    10.0   .     S
Er31     V23    10.0   1_556     S
Er31     V22    10.0   1_556     S
Er31     V25    10.0   1_556     S
Er31     V26    10.0   1_556     S
Er31     V49    10.0   .     S
Er32     V24    10.0   1_556     S
Er32     V23    10.0   1_556     S
Er32     V26    10.0   1_556     S
Er32     V27    10.0   1_556     S
Er32     V50    10.0   .     S
Er33     V22    10.0   1_566     S
Er33     V24    10.0   1_556     S
Er33     V27    10.0   1_556     S
Er33     V25    10.0   1_566     S
Er33     V51    10.0   .     S
Er34     V26    10.0   1_556     S
Er34     V25    10.0   1_556     S
Er34     V19    10.0   1_656     S
Er34     V20    10.0   1_656     S
Er34     V52    10.0   .     S
Er35     V27    10.0   1_556     S
Er35     V26    10.0   1_556     S
Er35     V20    10.0   1_656     S
Er35     V21    10.0   1_656     S
Er35     V53    10.0   .     S
Er36     V25    10.0   1_566     S
Er36     V27    10.0   1_556     S
Er36     V21    10.0   1_656     S
Er36     V19    10.0   1_666     S
Er36     V54    10.0   .     S
Er37     V46    10.0   .     S
Er38     V47    10.0   .     S
Er39     V22    10.0   1_565     S
Er39     V19    10.0   1_565     S
Er39     V48    10.0   .     S
Er40     V49    10.0   .     S
Er41     V50    10.0   .     S
Er42     V25    10.0   1_565     S
Er42     V22    10.0   1_565     S
Er42     V51    10.0   .     S
Er43     V19    10.0   1_655     S
Er43     V20    10.0   1_655     S
Er43     V52    10.0   .     S
Er44     V20    10.0   1_655     S
Er44     V21    10.0   1_655     S
Er44     V53    10.0   .     S
Er45     V21    10.0   1_655     S
Er45     V19    10.0   1_665     S
Er45     V25    10.0   1_565     S
Er45     V54    10.0   .     S
V46     V48    10.0   1_545     S
V46     V47    10.0   .     S
V46     V52    10.0   1_455     S
V46     V49    10.0   .     S
V47     V48    10.0   .     S
V47     V53    10.0   1_455     S
V47     V50    10.0   .     S
V48     Er4    10.0   1_565     S
V48     Er1    10.0   1_565     S
V48     Er13    10.0   1_565     S
V48     Er10    10.0   1_565     S
V48     V46    10.0   1_565     S
V48     V54    10.0   1_455     S
V48     V51    10.0   .     S
V49     V51    10.0   1_545     S
V49     V50    10.0   .     S
V49     V52    10.0   .     S
V50     V51    10.0   .     S
V50     V53    10.0   .     S
V51     Er7    10.0   1_565     S
V51     Er4    10.0   1_565     S
V51     Er16    10.0   1_565     S
V51     Er13    10.0   1_565     S
V51     V49    10.0   1_565     S
V51     V54    10.0   .     S
V52     Er2    10.0   1_655     S
V52     Er1    10.0   1_655     S
V52     Er10    10.0   1_655     S
V52     Er11    10.0   1_655     S
V52     V54    10.0   1_545     S
V52     V53    10.0   .     S
V52     V46    10.0   1_655     S
V53     Er3    10.0   1_655     S
V53     Er2    10.0   1_655     S
V53     Er11    10.0   1_655     S
V53     Er12    10.0   1_655     S
V53     V54    10.0   .     S
V53     V47    10.0   1_655     S
V54     Er1    10.0   1_665     S
V54     Er7    10.0   1_565     S
V54     Er3    10.0   1_655     S
V54     Er12    10.0   1_655     S
V54     Er10    10.0   1_665     S
V54     Er16    10.0   1_565     S
V54     V52    10.0   1_565     S
V54     V48    10.0   1_655     S
