data_ken
_audit_creation_date              2019-12-31
_audit_creation_method            'Pymatgen'
_symmetry_space_group_name_H-M    'P1'
_symmetry_Int_Tables_number       1
loop_
_symmetry_equiv_pos_as_xyz
  x,y,z
_cell_length_a                    32.6584
_cell_length_b                    32.6584
_cell_length_c                    26.669
_cell_angle_alpha                 90.0
_cell_angle_beta                 90.0
_cell_angle_gamma                 120.0
loop_
_atom_site_label
_atom_site_type_symbol
_atom_site_fract_x
_atom_site_fract_y
_atom_site_fract_z
V1     V     0.3333   0.1667   0.25
V2     V     0.3333   0.6667   0.25
V3     V     0.8333   0.1667   0.25
V4     V     0.8333   0.6667   0.25
Er5     Er     0.1667   0.3333   0.125
Er6     Er     0.1667   0.8333   0.125
Er7     Er     0.6667   0.3333   0.125
Er8     Er     0.6667   0.8333   0.125
Er9     Er     0.1667   0.3333   0.375
Er10     Er     0.1667   0.8333   0.375
Er11     Er     0.6667   0.3333   0.375
Er12     Er     0.6667   0.8333   0.375
V13     V     0.1667   0.3333   0.75
V14     V     0.1667   0.8333   0.75
V15     V     0.6667   0.3333   0.75
V16     V     0.6667   0.8333   0.75
Er17     Er     0.3333   0.1667   0.875
Er18     Er     0.3333   0.6667   0.875
Er19     Er     0.8333   0.1667   0.875
Er20     Er     0.8333   0.6667   0.875
Er21     Er     0.3333   0.1667   0.625
Er22     Er     0.3333   0.6667   0.625
Er23     Er     0.8333   0.1667   0.625
Er24     Er     0.8333   0.6667   0.625
loop_
_geom_bond_atom_site_label_1
_geom_bond_atom_site_label_2
_geom_bond_distance
_geom_bond_site_symmetry_2
_ccdc_geom_bond_type
V1     Er7    10.0   .     S
V1     Er11    10.0   .     S
V1     Er6    10.0   1_545     S
V1     Er10    10.0   1_545     S
V1     Er5    10.0   .     S
V1     Er9    10.0   .     S
V1     Er17    10.0   1_554     S
V1     Er21    10.0   .     S
V2     Er8    10.0   .     S
V2     Er12    10.0   .     S
V2     Er5    10.0   .     S
V2     Er9    10.0   .     S
V2     Er6    10.0   .     S
V2     Er10    10.0   .     S
V2     Er18    10.0   1_554     S
V2     Er22    10.0   .     S
V3     Er5    10.0   1_655     S
V3     Er9    10.0   1_655     S
V3     Er8    10.0   1_545     S
V3     Er12    10.0   1_545     S
V3     Er7    10.0   .     S
V3     Er11    10.0   .     S
V3     Er19    10.0   1_554     S
V3     Er23    10.0   .     S
V4     Er6    10.0   1_655     S
V4     Er10    10.0   1_655     S
V4     Er7    10.0   .     S
V4     Er11    10.0   .     S
V4     Er8    10.0   .     S
V4     Er12    10.0   .     S
V4     Er20    10.0   1_554     S
V4     Er24    10.0   .     S
Er5     V13    10.0   1_554     S
Er5     V3    10.0   1_455     S
Er6     V14    10.0   1_554     S
Er6     V4    10.0   1_455     S
Er6     V1    10.0   1_565     S
Er7     V15    10.0   1_554     S
Er8     V16    10.0   1_554     S
Er8     V3    10.0   1_565     S
Er9     V13    10.0   .     S
Er9     V3    10.0   1_455     S
Er10     V14    10.0   .     S
Er10     V4    10.0   1_455     S
Er10     V1    10.0   1_565     S
Er11     V15    10.0   .     S
Er12     V16    10.0   .     S
Er12     V3    10.0   1_565     S
V13     Er5    10.0   1_556     S
V13     Er22    10.0   .     S
V13     Er18    10.0   .     S
V13     Er23    10.0   1_455     S
V13     Er19    10.0   1_455     S
V13     Er21    10.0   .     S
V13     Er17    10.0   .     S
V14     Er6    10.0   1_556     S
V14     Er21    10.0   1_565     S
V14     Er17    10.0   1_565     S
V14     Er24    10.0   1_455     S
V14     Er20    10.0   1_455     S
V14     Er22    10.0   .     S
V14     Er18    10.0   .     S
V15     Er7    10.0   1_556     S
V15     Er24    10.0   .     S
V15     Er20    10.0   .     S
V15     Er21    10.0   .     S
V15     Er17    10.0   .     S
V15     Er23    10.0   .     S
V15     Er19    10.0   .     S
V16     Er8    10.0   1_556     S
V16     Er23    10.0   1_565     S
V16     Er19    10.0   1_565     S
V16     Er22    10.0   .     S
V16     Er18    10.0   .     S
V16     Er24    10.0   .     S
V16     Er20    10.0   .     S
Er17     V1    10.0   1_556     S
Er17     V14    10.0   1_545     S
Er18     V2    10.0   1_556     S
Er19     V3    10.0   1_556     S
Er19     V16    10.0   1_545     S
Er19     V13    10.0   1_655     S
Er20     V4    10.0   1_556     S
Er20     V14    10.0   1_655     S
Er21     V14    10.0   1_545     S
Er23     V16    10.0   1_545     S
Er23     V13    10.0   1_655     S
Er24     V14    10.0   1_655     S
