data_key
_audit_creation_date              2019-12-31
_audit_creation_method            'Pymatgen'
_symmetry_space_group_name_H-M    'P1'
_symmetry_Int_Tables_number       1
loop_
_symmetry_equiv_pos_as_xyz
  x,y,z
_cell_length_a                    24.8677
_cell_length_b                    24.8677
_cell_length_c                    26.183
_cell_angle_alpha                 90.0
_cell_angle_beta                 90.0
_cell_angle_gamma                 120.0
loop_
_atom_site_label
_atom_site_type_symbol
_atom_site_fract_x
_atom_site_fract_y
_atom_site_fract_z
Er1     Er     0.3333   0.6667   0.25
Er2     Er     0.3333   0.6667   0.75
V3     V     0.0   0.0   0.0
V4     V     0.0   0.0   0.5
Ti5     Ti     0.6003   0.0   0.0
Ti6     Ti     0.6003   0.0   0.5
Ti7     Ti     0.6003   0.6003   0.0
Ti8     Ti     0.6003   0.6003   0.5
Ti9     Ti     0.0   0.6003   0.0
Ti10     Ti     0.0   0.6003   0.5
Ti11     Ti     1.0   0.3997   0.0
Ti12     Ti     1.0   0.3997   0.5
Ti13     Ti     0.3997   0.0   0.0
Ti14     Ti     0.3997   0.0   0.5
Ti15     Ti     0.3997   0.3997   0.0
Ti16     Ti     0.3997   0.3997   0.5
Er17     Er     0.6667   0.3333   0.25
Er18     Er     0.6667   0.3333   0.75
loop_
_geom_bond_atom_site_label_1
_geom_bond_atom_site_label_2
_geom_bond_distance
_geom_bond_site_symmetry_2
_ccdc_geom_bond_type
Er1     Ti7    10.03   .     S
Er1     Ti13    10.03   1_565     S
Er1     Ti6    10.03   1_565     S
Er1     Ti10    10.03   .     S
Er1     Ti16    10.03   .     S
Er1     Ti11    10.03   1_455     S
Er2     Ti8    10.03   .     S
Er2     Ti14    10.03   1_565     S
Er2     Ti5    10.03   1_566     S
Er2     Ti9    10.03   1_556     S
Er2     Ti15    10.03   1_556     S
Er2     Ti12    10.03   1_455     S
V3     Ti11    9.94   1_455     S
V3     Ti13    9.94   .     S
V3     Ti15    9.94   .     S
V3     Ti9    9.94   1_545     S
V3     Ti5    9.94   1_455     S
V3     Ti7    9.94   1_445     S
V4     Ti12    9.94   1_455     S
V4     Ti14    9.94   .     S
V4     Ti16    9.94   .     S
V4     Ti10    9.94   1_545     S
V4     Ti6    9.94   1_455     S
V4     Ti8    9.94   1_445     S
Ti5     V3    9.94   1_655     S
Ti5     Er2    10.03   1_544     S
Ti5     Er17    10.03   .     S
Ti6     V4    9.94   1_655     S
Ti6     Er1    10.03   1_545     S
Ti6     Er18    10.03   .     S
Ti7     V3    9.94   1_665     S
Ti7     Er18    10.03   1_554     S
Ti8     V4    9.94   1_665     S
Ti8     Er17    10.03   .     S
Ti9     V3    9.94   1_565     S
Ti9     Er2    10.03   1_554     S
Ti9     Er17    10.03   1_455     S
Ti10     V4    9.94   1_565     S
Ti10     Er18    10.03   1_455     S
Ti11     V3    9.94   1_655     S
Ti11     Er1    10.03   1_655     S
Ti11     Er18    10.03   1_554     S
Ti12     V4    9.94   1_655     S
Ti12     Er2    10.03   1_655     S
Ti12     Er17    10.03   .     S
Ti13     Er1    10.03   1_545     S
Ti13     Er18    10.03   1_554     S
Ti14     Er2    10.03   1_545     S
Ti14     Er17    10.03   .     S
Ti15     Er2    10.03   1_554     S
Ti15     Er17    10.03   .     S
Ti16     Er18    10.03   .     S
Er17     Ti9    10.03   1_655     S
Er18     Ti7    10.03   1_556     S
Er18     Ti10    10.03   1_655     S
Er18     Ti13    10.03   1_556     S
Er18     Ti11    10.03   1_556     S
