data_kkm
_audit_creation_date              2019-12-31
_audit_creation_method            'Pymatgen'
_symmetry_space_group_name_H-M    'P1'
_symmetry_Int_Tables_number       1
loop_
_symmetry_equiv_pos_as_xyz
  x,y,z
_cell_length_a                    34.8328
_cell_length_b                    24.5258
_cell_length_c                    30.1173
_cell_angle_alpha                 90.0
_cell_angle_beta                 90.0
_cell_angle_gamma                 90.0
loop_
_atom_site_label
_atom_site_type_symbol
_atom_site_fract_x
_atom_site_fract_y
_atom_site_fract_z
Er1     Er     0.6583   0.5664   0.0
Er2     Er     0.6583   0.5664   0.3333
Er3     Er     0.6583   0.5664   0.6667
V4     V     0.5664   0.1809   0.0
V5     V     0.5664   0.1809   0.3333
V6     V     0.5664   0.1809   0.6667
Er7     Er     0.3417   0.4336   0.0
Er8     Er     0.3417   0.4336   0.3333
Er9     Er     0.3417   0.4336   0.6667
V10     V     0.4336   0.8191   0.0
V11     V     0.4336   0.8191   0.3333
V12     V     0.4336   0.8191   0.6667
Er13     Er     0.8417   0.0664   0.0
Er14     Er     0.8417   0.0664   0.3333
Er15     Er     0.8417   0.0664   0.6667
V16     V     0.9336   0.6809   0.0
V17     V     0.9336   0.6809   0.3333
V18     V     0.9336   0.6809   0.6667
Er19     Er     0.1583   0.9336   0.0
Er20     Er     0.1583   0.9336   0.3333
Er21     Er     0.1583   0.9336   0.6667
V22     V     0.0664   0.3191   0.0
V23     V     0.0664   0.3191   0.3333
V24     V     0.0664   0.3191   0.6667
loop_
_geom_bond_atom_site_label_1
_geom_bond_atom_site_label_2
_geom_bond_distance
_geom_bond_site_symmetry_2
_ccdc_geom_bond_type
Er1     V4    9.982   .     S
Er1     V10    9.983   .     S
Er1     V16    9.992   .     S
Er2     V5    9.982   .     S
Er2     V11    9.983   .     S
Er2     V17    9.992   .     S
Er3     V6    9.982   .     S
Er3     V12    9.983   .     S
Er3     V18    9.992   .     S
V4     Er7    9.983   .     S
V4     Er13    9.992   .     S
V4     V10    10.008   1_545     S
V4     V5    10.039   .     S
V4     V6    10.039   1_554     S
V5     Er8    9.983   .     S
V5     Er14    9.992   .     S
V5     V11    10.008   1_545     S
V5     V6    10.039   .     S
V6     Er9    9.983   .     S
V6     Er15    9.992   .     S
V6     V12    10.008   1_545     S
V6     V4    10.039   1_556     S
Er7     V10    9.982   .     S
Er7     V22    9.992   .     S
Er8     V11    9.982   .     S
Er8     V23    9.992   .     S
Er9     V12    9.982   .     S
Er9     V24    9.992   .     S
V10     Er19    9.992   .     S
V10     V4    10.008   1_565     S
V10     V11    10.039   .     S
V10     V12    10.039   1_554     S
V11     Er20    9.992   .     S
V11     V5    10.008   1_565     S
V11     V12    10.039   .     S
V12     Er21    9.992   .     S
V12     V6    10.008   1_565     S
V12     V10    10.039   1_556     S
Er13     V16    9.982   1_545     S
Er13     V22    9.983   1_655     S
Er14     V17    9.982   1_545     S
Er14     V23    9.983   1_655     S
Er15     V18    9.982   1_545     S
Er15     V24    9.983   1_655     S
V16     Er13    9.982   1_565     S
V16     Er19    9.983   1_655     S
V16     V22    10.008   1_655     S
V16     V17    10.039   .     S
V16     V18    10.039   1_554     S
V17     Er14    9.982   1_565     S
V17     Er20    9.983   1_655     S
V17     V23    10.008   1_655     S
V17     V18    10.039   .     S
V18     Er15    9.982   1_565     S
V18     Er21    9.983   1_655     S
V18     V24    10.008   1_655     S
V18     V16    10.039   1_556     S
Er19     V16    9.983   1_455     S
Er19     V22    9.982   1_565     S
Er20     V17    9.983   1_455     S
Er20     V23    9.982   1_565     S
Er21     V18    9.983   1_455     S
Er21     V24    9.982   1_565     S
V22     Er19    9.982   1_545     S
V22     Er13    9.983   1_455     S
V22     V16    10.008   1_455     S
V22     V23    10.039   .     S
V22     V24    10.039   1_554     S
V23     Er20    9.982   1_545     S
V23     Er14    9.983   1_455     S
V23     V17    10.008   1_455     S
V23     V24    10.039   .     S
V24     Er21    9.982   1_545     S
V24     Er15    9.983   1_455     S
V24     V18    10.008   1_455     S
V24     V22    10.039   1_556     S
