data_kna
_audit_creation_date              2019-12-31
_audit_creation_method            'Pymatgen'
_symmetry_space_group_name_H-M    'P1'
_symmetry_Int_Tables_number       1
loop_
_symmetry_equiv_pos_as_xyz
  x,y,z
_cell_length_a                    25.645
_cell_length_b                    25.645
_cell_length_c                    31.6986
_cell_angle_alpha                 90.0
_cell_angle_beta                 90.0
_cell_angle_gamma                 120.0
loop_
_atom_site_label
_atom_site_type_symbol
_atom_site_fract_x
_atom_site_fract_y
_atom_site_fract_z
Er1     Er     0.3333   0.6667   0.0
Er2     Er     0.3333   0.6667   0.5
Er3     Er     0.6667   0.3333   0.0
Er4     Er     0.6667   0.3333   0.5
V5     V     0.7619   0.0   0.0
V6     V     0.7619   0.0   0.5
V7     V     0.7619   0.7619   0.0
V8     V     0.7619   0.7619   0.5
V9     V     0.0   0.7619   0.0
V10     V     0.0   0.7619   0.5
V11     V     0.2381   0.2381   0.0
V12     V     0.2381   0.2381   0.5
V13     V     1.0   0.2381   0.0
V14     V     1.0   0.2381   0.5
V15     V     0.2381   0.0   0.0
V16     V     0.2381   0.0   0.5
Ti17     Ti     0.0   0.0   0.25
Ti18     Ti     0.0   0.0   0.75
loop_
_geom_bond_atom_site_label_1
_geom_bond_atom_site_label_2
_geom_bond_distance
_geom_bond_site_symmetry_2
_ccdc_geom_bond_type
Er1     V13    9.996   1_455     S
Er1     V11    9.996   .     S
Er1     V15    9.996   1_565     S
Er1     V9    9.996   .     S
Er1     V7    9.996   .     S
Er1     V5    9.996   1_565     S
Er2     V14    9.996   1_455     S
Er2     V12    9.996   .     S
Er2     V16    9.996   1_565     S
Er2     V10    9.996   .     S
Er2     V8    9.996   .     S
Er2     V6    9.996   1_565     S
Er3     V5    9.996   .     S
Er3     V13    9.996   .     S
Er3     V11    9.996   .     S
Er3     V15    9.996   .     S
Er3     V9    9.996   1_655     S
Er3     V7    9.996   .     S
Er4     V6    9.996   .     S
Er4     V14    9.996   .     S
Er4     V12    9.996   .     S
Er4     V16    9.996   .     S
Er4     V10    9.996   1_655     S
Er4     V8    9.996   .     S
V5     Ti18    10.004   1_654     S
V5     Ti17    10.004   1_655     S
V5     Er1    9.996   1_545     S
V6     Ti17    10.004   1_655     S
V6     Ti18    10.004   1_655     S
V6     Er2    9.996   1_545     S
V7     Ti18    10.004   1_664     S
V7     Ti17    10.004   1_665     S
V8     Ti17    10.004   1_665     S
V8     Ti18    10.004   1_665     S
V9     Ti18    10.004   1_564     S
V9     Ti17    10.004   1_565     S
V9     Er3    9.996   1_455     S
V10     Ti17    10.004   1_565     S
V10     Ti18    10.004   1_565     S
V10     Er4    9.996   1_455     S
V11     Ti18    10.004   1_554     S
V11     Ti17    10.004   .     S
V12     Ti17    10.004   .     S
V12     Ti18    10.004   .     S
V13     Ti18    10.004   1_654     S
V13     Ti17    10.004   1_655     S
V13     Er1    9.996   1_655     S
V14     Ti17    10.004   1_655     S
V14     Ti18    10.004   1_655     S
V14     Er2    9.996   1_655     S
V15     Ti18    10.004   1_554     S
V15     Ti17    10.004   .     S
V15     Er1    9.996   1_545     S
V16     Ti17    10.004   .     S
V16     Ti18    10.004   .     S
V16     Er2    9.996   1_545     S
Ti17     V10    10.004   1_545     S
Ti17     V14    10.004   1_455     S
Ti17     V6    10.004   1_455     S
Ti17     V8    10.004   1_445     S
Ti17     V9    10.004   1_545     S
Ti17     V13    10.004   1_455     S
Ti17     V5    10.004   1_455     S
Ti17     V7    10.004   1_445     S
Ti18     V9    10.004   1_546     S
Ti18     V15    10.004   1_556     S
Ti18     V11    10.004   1_556     S
Ti18     V13    10.004   1_456     S
Ti18     V5    10.004   1_456     S
Ti18     V7    10.004   1_446     S
Ti18     V10    10.004   1_545     S
Ti18     V14    10.004   1_455     S
Ti18     V6    10.004   1_455     S
Ti18     V8    10.004   1_445     S
