data_knb
_audit_creation_date              2019-12-31
_audit_creation_method            'Pymatgen'
_symmetry_space_group_name_H-M    'P1'
_symmetry_Int_Tables_number       1
loop_
_symmetry_equiv_pos_as_xyz
  x,y,z
_cell_length_a                    36.9132
_cell_length_b                    36.9132
_cell_length_c                    24.7699
_cell_angle_alpha                 90.0
_cell_angle_beta                 90.0
_cell_angle_gamma                 120.0
loop_
_atom_site_label
_atom_site_type_symbol
_atom_site_fract_x
_atom_site_fract_y
_atom_site_fract_z
Ti1     Ti     0.1667   0.3333   0.5
Ti2     Ti     0.1667   0.8333   0.5
Ti3     Ti     0.6667   0.3333   0.5
Ti4     Ti     0.6667   0.8333   0.5
Ti5     Ti     0.3333   0.1667   0.5
Ti6     Ti     0.3333   0.6667   0.5
Ti7     Ti     0.8333   0.1667   0.5
Ti8     Ti     0.8333   0.6667   0.5
V9     V     0.25   0.25   0.8392
V10     V     0.25   0.75   0.8392
V11     V     0.75   0.25   0.8392
V12     V     0.75   0.75   0.8392
V13     V     1.0   0.25   0.8392
V14     V     0.0   0.75   0.8392
V15     V     0.5   0.25   0.8392
V16     V     0.5   0.75   0.8392
V17     V     1.0   0.25   0.1608
V18     V     0.0   0.75   0.1608
V19     V     0.5   0.25   0.1608
V20     V     0.5   0.75   0.1608
V21     V     0.25   0.25   0.1608
V22     V     0.25   0.75   0.1608
V23     V     0.75   0.25   0.1608
V24     V     0.75   0.75   0.1608
V25     V     0.25   0.0   0.8392
V26     V     0.25   0.5   0.8392
V27     V     0.75   0.0   0.8392
V28     V     0.75   0.5   0.8392
V29     V     0.25   0.0   0.1608
V30     V     0.25   0.5   0.1608
V31     V     0.75   0.0   0.1608
V32     V     0.75   0.5   0.1608
Er33     Er     0.0   0.0   0.0
Er34     Er     1.0   0.5   0.0
Er35     Er     0.5   0.0   0.0
Er36     Er     0.5   0.5   0.0
loop_
_geom_bond_atom_site_label_1
_geom_bond_atom_site_label_2
_geom_bond_distance
_geom_bond_site_symmetry_2
_ccdc_geom_bond_type
Ti1     V30    9.949   .     S
Ti1     V21    9.949   .     S
Ti1     V17    9.949   1_455     S
Ti1     V26    9.949   .     S
Ti1     V9    9.949   .     S
Ti1     V13    9.949   1_455     S
Ti2     V29    9.949   1_565     S
Ti2     V22    9.949   .     S
Ti2     V18    9.949   .     S
Ti2     V25    9.949   1_565     S
Ti2     V10    9.949   .     S
Ti2     V14    9.949   .     S
Ti3     V32    9.949   .     S
Ti3     V23    9.949   .     S
Ti3     V19    9.949   .     S
Ti3     V28    9.949   .     S
Ti3     V11    9.949   .     S
Ti3     V15    9.949   .     S
Ti4     V31    9.949   1_565     S
Ti4     V24    9.949   .     S
Ti4     V20    9.949   .     S
Ti4     V27    9.949   1_565     S
Ti4     V12    9.949   .     S
Ti4     V16    9.949   .     S
Ti5     V15    9.949   .     S
Ti5     V9    9.949   .     S
Ti5     V25    9.949   .     S
Ti5     V21    9.949   .     S
Ti5     V19    9.949   .     S
Ti5     V29    9.949   .     S
Ti6     V16    9.949   .     S
Ti6     V10    9.949   .     S
Ti6     V26    9.949   .     S
Ti6     V22    9.949   .     S
Ti6     V20    9.949   .     S
Ti6     V30    9.949   .     S
Ti7     V13    9.949   .     S
Ti7     V11    9.949   .     S
Ti7     V27    9.949   .     S
Ti7     V23    9.949   .     S
Ti7     V17    9.949   .     S
Ti7     V31    9.949   .     S
Ti8     V14    9.949   1_655     S
Ti8     V12    9.949   .     S
Ti8     V28    9.949   .     S
Ti8     V24    9.949   .     S
Ti8     V18    9.949   1_655     S
Ti8     V32    9.949   .     S
V9     Er36    10.051   1_556     S
V9     Er33    10.051   1_556     S
V10     Er35    10.051   1_566     S
V10     Er34    10.051   1_456     S
V11     Er34    10.051   1_556     S
V11     Er35    10.051   1_556     S
V12     Er33    10.051   1_666     S
V12     Er36    10.051   1_556     S
V13     Ti1    9.949   1_655     S
V13     Er34    10.051   1_556     S
V13     Er33    10.051   1_656     S
V14     Ti8    9.949   1_455     S
V14     Er33    10.051   1_566     S
V14     Er34    10.051   1_456     S
V15     Er36    10.051   1_556     S
V15     Er35    10.051   1_556     S
V16     Er35    10.051   1_566     S
V16     Er36    10.051   1_556     S
V17     Ti1    9.949   1_655     S
V17     Er34    10.051   .     S
V17     Er33    10.051   1_655     S
V18     Ti8    9.949   1_455     S
V18     Er33    10.051   1_565     S
V18     Er34    10.051   1_455     S
V19     Er36    10.051   .     S
V19     Er35    10.051   .     S
V20     Er35    10.051   1_565     S
V20     Er36    10.051   .     S
V21     Er36    10.051   .     S
V21     Er33    10.051   .     S
V22     Er35    10.051   1_565     S
V22     Er34    10.051   1_455     S
V23     Er34    10.051   .     S
V23     Er35    10.051   .     S
V24     Er33    10.051   1_665     S
V24     Er36    10.051   .     S
V25     Ti2    9.949   1_545     S
V25     Er35    10.051   1_556     S
V25     Er33    10.051   1_556     S
V26     Er36    10.051   1_556     S
V26     Er34    10.051   1_456     S
V27     Ti4    9.949   1_545     S
V27     Er33    10.051   1_656     S
V27     Er35    10.051   1_556     S
V28     Er34    10.051   1_556     S
V28     Er36    10.051   1_556     S
V29     Ti2    9.949   1_545     S
V29     Er35    10.051   .     S
V29     Er33    10.051   .     S
V30     Er36    10.051   .     S
V30     Er34    10.051   1_455     S
V31     Ti4    9.949   1_545     S
V31     Er33    10.051   1_655     S
V31     Er35    10.051   .     S
V32     Er34    10.051   .     S
V32     Er36    10.051   .     S
Er33     V24    10.051   1_445     S
Er33     V12    10.051   1_444     S
Er33     V31    10.051   1_455     S
Er33     V27    10.051   1_454     S
Er33     V18    10.051   1_545     S
Er33     V14    10.051   1_544     S
Er33     V25    10.051   1_554     S
Er33     V17    10.051   1_455     S
Er33     V13    10.051   1_454     S
Er33     V9    10.051   1_554     S
Er34     V11    10.051   1_554     S
Er34     V28    10.051   1_554     S
Er34     V13    10.051   1_554     S
Er34     V30    10.051   1_655     S
Er34     V26    10.051   1_654     S
Er34     V18    10.051   1_655     S
Er34     V14    10.051   1_654     S
Er34     V22    10.051   1_655     S
Er34     V10    10.051   1_654     S
Er35     V22    10.051   1_545     S
Er35     V10    10.051   1_544     S
Er35     V25    10.051   1_554     S
Er35     V20    10.051   1_545     S
Er35     V16    10.051   1_544     S
Er35     V27    10.051   1_554     S
Er35     V15    10.051   1_554     S
Er35     V11    10.051   1_554     S
Er36     V9    10.051   1_554     S
Er36     V26    10.051   1_554     S
Er36     V15    10.051   1_554     S
Er36     V28    10.051   1_554     S
Er36     V16    10.051   1_554     S
Er36     V12    10.051   1_554     S
