data_kty
_audit_creation_date              2019-12-31
_audit_creation_method            'Pymatgen'
_symmetry_space_group_name_H-M    'P1'
_symmetry_Int_Tables_number       1
loop_
_symmetry_equiv_pos_as_xyz
  x,y,z
_cell_length_a                    37.4502
_cell_length_b                    37.4502
_cell_length_c                    26.0286
_cell_angle_alpha                 90.0
_cell_angle_beta                 90.0
_cell_angle_gamma                 90.0
loop_
_atom_site_label
_atom_site_type_symbol
_atom_site_fract_x
_atom_site_fract_y
_atom_site_fract_z
V1     V     0.0   0.0   0.0
V2     V     0.0   0.0   0.3333
V3     V     0.0   0.0   0.6667
V4     V     0.0   0.5   0.0
V5     V     0.0   0.5   0.3333
V6     V     0.0   0.5   0.6667
V7     V     0.5   0.0   0.0
V8     V     0.5   0.0   0.3333
V9     V     0.5   0.0   0.6667
V10     V     0.5   0.5   0.0
V11     V     0.5   0.5   0.3333
V12     V     0.5   0.5   0.6667
Er13     Er     0.0   0.25   0.0
Er14     Er     0.0   0.25   0.3333
Er15     Er     0.0   0.25   0.6667
Er16     Er     0.0   0.75   0.0
Er17     Er     0.0   0.75   0.3333
Er18     Er     0.0   0.75   0.6667
Er19     Er     0.5   0.25   0.0
Er20     Er     0.5   0.25   0.3333
Er21     Er     0.5   0.25   0.6667
Er22     Er     0.5   0.75   0.0
Er23     Er     0.5   0.75   0.3333
Er24     Er     0.5   0.75   0.6667
Er25     Er     0.25   0.0   0.0
Er26     Er     0.25   0.0   0.3333
Er27     Er     0.25   0.0   0.6667
Er28     Er     0.25   0.5   0.0
Er29     Er     0.25   0.5   0.3333
Er30     Er     0.25   0.5   0.6667
Er31     Er     0.75   0.0   0.0
Er32     Er     0.75   0.0   0.3333
Er33     Er     0.75   0.0   0.6667
Er34     Er     0.75   0.5   0.0
Er35     Er     0.75   0.5   0.3333
Er36     Er     0.75   0.5   0.6667
Ti37     Ti     0.25   0.25   0.1667
Ti38     Ti     0.25   0.25   0.5
Ti39     Ti     0.25   0.25   0.8333
Ti40     Ti     0.25   0.75   0.1667
Ti41     Ti     0.25   0.75   0.5
Ti42     Ti     0.25   0.75   0.8333
Ti43     Ti     0.75   0.25   0.1667
Ti44     Ti     0.75   0.25   0.5
Ti45     Ti     0.75   0.25   0.8333
Ti46     Ti     0.75   0.75   0.1667
Ti47     Ti     0.75   0.75   0.5
Ti48     Ti     0.75   0.75   0.8333
loop_
_geom_bond_atom_site_label_1
_geom_bond_atom_site_label_2
_geom_bond_distance
_geom_bond_site_symmetry_2
_ccdc_geom_bond_type
V1     Er13    9.363   .     S
V1     Er31    9.363   1_455     S
V1     Er16    9.363   1_545     S
V1     Er25    9.363   .     S
V2     Er14    9.363   .     S
V2     Er32    9.363   1_455     S
V2     Er17    9.363   1_545     S
V2     Er26    9.363   .     S
V3     Er15    9.363   .     S
V3     Er33    9.363   1_455     S
V3     Er18    9.363   1_545     S
V3     Er27    9.363   .     S
V4     Er16    9.363   .     S
V4     Er34    9.363   1_455     S
V4     Er13    9.363   .     S
V4     Er28    9.363   .     S
V5     Er17    9.363   .     S
V5     Er35    9.363   1_455     S
V5     Er14    9.363   .     S
V5     Er29    9.363   .     S
V6     Er18    9.363   .     S
V6     Er36    9.363   1_455     S
V6     Er15    9.363   .     S
V6     Er30    9.363   .     S
V7     Er19    9.363   .     S
V7     Er25    9.363   .     S
V7     Er22    9.363   1_545     S
V7     Er31    9.363   .     S
V8     Er20    9.363   .     S
V8     Er26    9.363   .     S
V8     Er23    9.363   1_545     S
V8     Er32    9.363   .     S
V9     Er21    9.363   .     S
V9     Er27    9.363   .     S
V9     Er24    9.363   1_545     S
V9     Er33    9.363   .     S
V10     Er22    9.363   .     S
V10     Er28    9.363   .     S
V10     Er19    9.363   .     S
V10     Er34    9.363   .     S
V11     Er23    9.363   .     S
V11     Er29    9.363   .     S
V11     Er20    9.363   .     S
V11     Er35    9.363   .     S
V12     Er24    9.363   .     S
V12     Er30    9.363   .     S
V12     Er21    9.363   .     S
V12     Er36    9.363   .     S
Er13     Ti43    10.319   1_455     S
Er13     Ti45    10.319   1_454     S
Er13     Ti37    10.319   .     S
Er13     Ti39    10.319   1_554     S
Er14     Ti44    10.319   1_455     S
Er14     Ti43    10.319   1_455     S
Er14     Ti38    10.319   .     S
Er14     Ti37    10.319   .     S
Er15     Ti45    10.319   1_455     S
Er15     Ti44    10.319   1_455     S
Er15     Ti39    10.319   .     S
Er15     Ti38    10.319   .     S
Er16     Ti46    10.319   1_455     S
Er16     Ti48    10.319   1_454     S
Er16     Ti40    10.319   .     S
Er16     Ti42    10.319   1_554     S
Er16     V1    9.363   1_565     S
Er17     Ti47    10.319   1_455     S
Er17     Ti46    10.319   1_455     S
Er17     Ti41    10.319   .     S
Er17     Ti40    10.319   .     S
Er17     V2    9.363   1_565     S
Er18     Ti48    10.319   1_455     S
Er18     Ti47    10.319   1_455     S
Er18     Ti42    10.319   .     S
Er18     Ti41    10.319   .     S
Er18     V3    9.363   1_565     S
Er19     Ti37    10.319   .     S
Er19     Ti39    10.319   1_554     S
Er19     Ti43    10.319   .     S
Er19     Ti45    10.319   1_554     S
Er20     Ti38    10.319   .     S
Er20     Ti37    10.319   .     S
Er20     Ti44    10.319   .     S
Er20     Ti43    10.319   .     S
Er21     Ti39    10.319   .     S
Er21     Ti38    10.319   .     S
Er21     Ti45    10.319   .     S
Er21     Ti44    10.319   .     S
Er22     Ti40    10.319   .     S
Er22     Ti42    10.319   1_554     S
Er22     Ti46    10.319   .     S
Er22     Ti48    10.319   1_554     S
Er22     V7    9.363   1_565     S
Er23     Ti41    10.319   .     S
Er23     Ti40    10.319   .     S
Er23     Ti47    10.319   .     S
Er23     Ti46    10.319   .     S
Er23     V8    9.363   1_565     S
Er24     Ti42    10.319   .     S
Er24     Ti41    10.319   .     S
Er24     Ti48    10.319   .     S
Er24     Ti47    10.319   .     S
Er24     V9    9.363   1_565     S
Er25     Ti40    10.319   1_545     S
Er25     Ti42    10.319   1_544     S
Er25     Ti37    10.319   .     S
Er25     Ti39    10.319   1_554     S
Er26     Ti41    10.319   1_545     S
Er26     Ti40    10.319   1_545     S
Er26     Ti38    10.319   .     S
Er26     Ti37    10.319   .     S
Er27     Ti42    10.319   1_545     S
Er27     Ti41    10.319   1_545     S
Er27     Ti39    10.319   .     S
Er27     Ti38    10.319   .     S
Er28     Ti37    10.319   .     S
Er28     Ti39    10.319   1_554     S
Er28     Ti40    10.319   .     S
Er28     Ti42    10.319   1_554     S
Er29     Ti38    10.319   .     S
Er29     Ti37    10.319   .     S
Er29     Ti41    10.319   .     S
Er29     Ti40    10.319   .     S
Er30     Ti39    10.319   .     S
Er30     Ti38    10.319   .     S
Er30     Ti42    10.319   .     S
Er30     Ti41    10.319   .     S
Er31     Ti46    10.319   1_545     S
Er31     Ti48    10.319   1_544     S
Er31     Ti43    10.319   .     S
Er31     Ti45    10.319   1_554     S
Er31     V1    9.363   1_655     S
Er32     Ti47    10.319   1_545     S
Er32     Ti46    10.319   1_545     S
Er32     Ti44    10.319   .     S
Er32     Ti43    10.319   .     S
Er32     V2    9.363   1_655     S
Er33     Ti48    10.319   1_545     S
Er33     Ti47    10.319   1_545     S
Er33     Ti45    10.319   .     S
Er33     Ti44    10.319   .     S
Er33     V3    9.363   1_655     S
Er34     Ti43    10.319   .     S
Er34     Ti45    10.319   1_554     S
Er34     Ti46    10.319   .     S
Er34     Ti48    10.319   1_554     S
Er34     V4    9.363   1_655     S
Er35     Ti44    10.319   .     S
Er35     Ti43    10.319   .     S
Er35     Ti47    10.319   .     S
Er35     Ti46    10.319   .     S
Er35     V5    9.363   1_655     S
Er36     Ti45    10.319   .     S
Er36     Ti44    10.319   .     S
Er36     Ti48    10.319   .     S
Er36     Ti47    10.319   .     S
Er36     V6    9.363   1_655     S
Ti39     Er28    10.319   1_556     S
Ti39     Er19    10.319   1_556     S
Ti39     Er25    10.319   1_556     S
Ti39     Er13    10.319   1_556     S
Ti40     Er25    10.319   1_565     S
Ti40     Er26    10.319   1_565     S
Ti41     Er26    10.319   1_565     S
Ti41     Er27    10.319   1_565     S
Ti42     Er27    10.319   1_565     S
Ti42     Er25    10.319   1_566     S
Ti42     Er22    10.319   1_556     S
Ti42     Er28    10.319   1_556     S
Ti42     Er16    10.319   1_556     S
Ti43     Er13    10.319   1_655     S
Ti43     Er14    10.319   1_655     S
Ti44     Er14    10.319   1_655     S
Ti44     Er15    10.319   1_655     S
Ti45     Er34    10.319   1_556     S
Ti45     Er15    10.319   1_655     S
Ti45     Er13    10.319   1_656     S
Ti45     Er31    10.319   1_556     S
Ti45     Er19    10.319   1_556     S
Ti46     Er31    10.319   1_565     S
Ti46     Er32    10.319   1_565     S
Ti46     Er16    10.319   1_655     S
Ti46     Er17    10.319   1_655     S
Ti47     Er32    10.319   1_565     S
Ti47     Er33    10.319   1_565     S
Ti47     Er17    10.319   1_655     S
Ti47     Er18    10.319   1_655     S
Ti48     Er33    10.319   1_565     S
Ti48     Er31    10.319   1_566     S
Ti48     Er18    10.319   1_655     S
Ti48     Er16    10.319   1_656     S
Ti48     Er34    10.319   1_556     S
Ti48     Er22    10.319   1_556     S
