data_lcw-x
_audit_creation_date              2019-12-31
_audit_creation_method            'Pymatgen'
_symmetry_space_group_name_H-M    'P1'
_symmetry_Int_Tables_number       1
loop_
_symmetry_equiv_pos_as_xyz
  x,y,z
_cell_length_a                    33.9042
_cell_length_b                    33.9042
_cell_length_c                    33.9042
_cell_angle_alpha                 90.0
_cell_angle_beta                 90.0
_cell_angle_gamma                 90.0
loop_
_atom_site_label
_atom_site_type_symbol
_atom_site_fract_x
_atom_site_fract_y
_atom_site_fract_z
V1     V     0.25   0.0   0.125
V2     V     0.25   0.0   0.625
V3     V     0.25   0.5   0.125
V4     V     0.25   0.5   0.625
V5     V     0.75   0.0   0.125
V6     V     0.75   0.0   0.625
V7     V     0.75   0.5   0.125
V8     V     0.75   0.5   0.625
V9     V     0.25   0.0   0.375
V10     V     0.25   0.0   0.875
V11     V     0.25   0.5   0.375
V12     V     0.25   0.5   0.875
V13     V     0.75   0.0   0.375
V14     V     0.75   0.0   0.875
V15     V     0.75   0.5   0.375
V16     V     0.75   0.5   0.875
V17     V     0.125   0.25   0.0
V18     V     0.125   0.25   0.5
V19     V     0.125   0.75   0.0
V20     V     0.125   0.75   0.5
V21     V     0.625   0.25   0.0
V22     V     0.625   0.25   0.5
V23     V     0.625   0.75   0.0
V24     V     0.625   0.75   0.5
V25     V     0.375   0.25   0.0
V26     V     0.375   0.25   0.5
V27     V     0.375   0.75   0.0
V28     V     0.375   0.75   0.5
V29     V     0.875   0.25   0.0
V30     V     0.875   0.25   0.5
V31     V     0.875   0.75   0.0
V32     V     0.875   0.75   0.5
V33     V     0.0   0.125   0.25
V34     V     0.0   0.125   0.75
V35     V     0.0   0.625   0.25
V36     V     0.0   0.625   0.75
V37     V     0.5   0.125   0.25
V38     V     0.5   0.125   0.75
V39     V     0.5   0.625   0.25
V40     V     0.5   0.625   0.75
V41     V     0.0   0.375   0.25
V42     V     0.0   0.375   0.75
V43     V     0.0   0.875   0.25
V44     V     0.0   0.875   0.75
V45     V     0.5   0.375   0.25
V46     V     0.5   0.375   0.75
V47     V     0.5   0.875   0.25
V48     V     0.5   0.875   0.75
loop_
_geom_bond_atom_site_label_1
_geom_bond_atom_site_label_2
_geom_bond_distance
_geom_bond_site_symmetry_2
_ccdc_geom_bond_type
V1     V25    10.381   .     S
V1     V17    10.381   .     S
V1     V47    10.381   1_545     S
V1     V37    10.381   .     S
V1     V19    10.381   1_545     S
V1     V27    10.381   1_545     S
V1     V33    10.381   .     S
V1     V43    10.381   1_545     S
V1     V9    8.476   .     S
V1     V10    8.476   1_554     S
V2     V26    10.381   .     S
V2     V18    10.381   .     S
V2     V48    10.381   1_545     S
V2     V38    10.381   .     S
V2     V20    10.381   1_545     S
V2     V28    10.381   1_545     S
V2     V34    10.381   .     S
V2     V44    10.381   1_545     S
V2     V10    8.476   .     S
V2     V9    8.476   .     S
V3     V27    10.381   .     S
V3     V19    10.381   .     S
V3     V45    10.381   .     S
V3     V39    10.381   .     S
V3     V17    10.381   .     S
V3     V25    10.381   .     S
V3     V35    10.381   .     S
V3     V41    10.381   .     S
V3     V11    8.476   .     S
V3     V12    8.476   1_554     S
V4     V28    10.381   .     S
V4     V20    10.381   .     S
V4     V46    10.381   .     S
V4     V40    10.381   .     S
V4     V18    10.381   .     S
V4     V26    10.381   .     S
V4     V36    10.381   .     S
V4     V42    10.381   .     S
V4     V12    8.476   .     S
V4     V11    8.476   .     S
V5     V29    10.381   .     S
V5     V21    10.381   .     S
V5     V43    10.381   1_645     S
V5     V33    10.381   1_655     S
V5     V23    10.381   1_545     S
V5     V31    10.381   1_545     S
V5     V37    10.381   .     S
V5     V47    10.381   1_545     S
V5     V13    8.476   .     S
V5     V14    8.476   1_554     S
V6     V30    10.381   .     S
V6     V22    10.381   .     S
V6     V44    10.381   1_645     S
V6     V34    10.381   1_655     S
V6     V24    10.381   1_545     S
V6     V32    10.381   1_545     S
V6     V38    10.381   .     S
V6     V48    10.381   1_545     S
V6     V14    8.476   .     S
V6     V13    8.476   .     S
V7     V31    10.381   .     S
V7     V23    10.381   .     S
V7     V41    10.381   1_655     S
V7     V35    10.381   1_655     S
V7     V21    10.381   .     S
V7     V29    10.381   .     S
V7     V39    10.381   .     S
V7     V45    10.381   .     S
V7     V15    8.476   .     S
V7     V16    8.476   1_554     S
V8     V32    10.381   .     S
V8     V24    10.381   .     S
V8     V42    10.381   1_655     S
V8     V36    10.381   1_655     S
V8     V22    10.381   .     S
V8     V30    10.381   .     S
V8     V40    10.381   .     S
V8     V46    10.381   .     S
V8     V16    8.476   .     S
V8     V15    8.476   .     S
V9     V26    10.381   .     S
V9     V18    10.381   .     S
V9     V47    10.381   1_545     S
V9     V37    10.381   .     S
V9     V20    10.381   1_545     S
V9     V28    10.381   1_545     S
V9     V33    10.381   .     S
V9     V43    10.381   1_545     S
V10     V25    10.381   1_556     S
V10     V17    10.381   1_556     S
V10     V48    10.381   1_545     S
V10     V38    10.381   .     S
V10     V19    10.381   1_546     S
V10     V27    10.381   1_546     S
V10     V34    10.381   .     S
V10     V44    10.381   1_545     S
V10     V1    8.476   1_556     S
V11     V28    10.381   .     S
V11     V20    10.381   .     S
V11     V45    10.381   .     S
V11     V39    10.381   .     S
V11     V18    10.381   .     S
V11     V26    10.381   .     S
V11     V35    10.381   .     S
V11     V41    10.381   .     S
V12     V27    10.381   1_556     S
V12     V19    10.381   1_556     S
V12     V46    10.381   .     S
V12     V40    10.381   .     S
V12     V17    10.381   1_556     S
V12     V25    10.381   1_556     S
V12     V36    10.381   .     S
V12     V42    10.381   .     S
V12     V3    8.476   1_556     S
V13     V30    10.381   .     S
V13     V22    10.381   .     S
V13     V43    10.381   1_645     S
V13     V33    10.381   1_655     S
V13     V24    10.381   1_545     S
V13     V32    10.381   1_545     S
V13     V37    10.381   .     S
V13     V47    10.381   1_545     S
V14     V29    10.381   1_556     S
V14     V21    10.381   1_556     S
V14     V44    10.381   1_645     S
V14     V34    10.381   1_655     S
V14     V23    10.381   1_546     S
V14     V31    10.381   1_546     S
V14     V38    10.381   .     S
V14     V48    10.381   1_545     S
V14     V5    8.476   1_556     S
V15     V32    10.381   .     S
V15     V24    10.381   .     S
V15     V41    10.381   1_655     S
V15     V35    10.381   1_655     S
V15     V22    10.381   .     S
V15     V30    10.381   .     S
V15     V39    10.381   .     S
V15     V45    10.381   .     S
V16     V31    10.381   1_556     S
V16     V23    10.381   1_556     S
V16     V42    10.381   1_655     S
V16     V36    10.381   1_655     S
V16     V21    10.381   1_556     S
V16     V29    10.381   1_556     S
V16     V40    10.381   .     S
V16     V46    10.381   .     S
V16     V7    8.476   1_556     S
V17     V10    10.381   1_554     S
V17     V12    10.381   1_554     S
V17     V42    10.381   1_554     S
V17     V34    10.381   1_554     S
V17     V33    10.381   .     S
V17     V41    10.381   .     S
V17     V29    8.476   1_455     S
V17     V25    8.476   .     S
V18     V41    10.381   .     S
V18     V33    10.381   .     S
V18     V34    10.381   .     S
V18     V42    10.381   .     S
V18     V30    8.476   1_455     S
V18     V26    8.476   .     S
V19     V12    10.381   1_554     S
V19     V10    10.381   1_564     S
V19     V1    10.381   1_565     S
V19     V44    10.381   1_554     S
V19     V36    10.381   1_554     S
V19     V35    10.381   .     S
V19     V43    10.381   .     S
V19     V31    8.476   1_455     S
V19     V27    8.476   .     S
V20     V9    10.381   1_565     S
V20     V2    10.381   1_565     S
V20     V43    10.381   .     S
V20     V35    10.381   .     S
V20     V36    10.381   .     S
V20     V44    10.381   .     S
V20     V32    8.476   1_455     S
V20     V28    8.476   .     S
V21     V14    10.381   1_554     S
V21     V16    10.381   1_554     S
V21     V46    10.381   1_554     S
V21     V38    10.381   1_554     S
V21     V37    10.381   .     S
V21     V45    10.381   .     S
V21     V25    8.476   .     S
V21     V29    8.476   .     S
V22     V45    10.381   .     S
V22     V37    10.381   .     S
V22     V38    10.381   .     S
V22     V46    10.381   .     S
V22     V26    8.476   .     S
V22     V30    8.476   .     S
V23     V16    10.381   1_554     S
V23     V14    10.381   1_564     S
V23     V5    10.381   1_565     S
V23     V48    10.381   1_554     S
V23     V40    10.381   1_554     S
V23     V39    10.381   .     S
V23     V47    10.381   .     S
V23     V27    8.476   .     S
V23     V31    8.476   .     S
V24     V13    10.381   1_565     S
V24     V6    10.381   1_565     S
V24     V47    10.381   .     S
V24     V39    10.381   .     S
V24     V40    10.381   .     S
V24     V48    10.381   .     S
V24     V28    8.476   .     S
V24     V32    8.476   .     S
V25     V10    10.381   1_554     S
V25     V12    10.381   1_554     S
V25     V46    10.381   1_554     S
V25     V38    10.381   1_554     S
V25     V37    10.381   .     S
V25     V45    10.381   .     S
V26     V45    10.381   .     S
V26     V37    10.381   .     S
V26     V38    10.381   .     S
V26     V46    10.381   .     S
V27     V12    10.381   1_554     S
V27     V1    10.381   1_565     S
V27     V10    10.381   1_564     S
V27     V48    10.381   1_554     S
V27     V40    10.381   1_554     S
V27     V39    10.381   .     S
V27     V47    10.381   .     S
V28     V2    10.381   1_565     S
V28     V9    10.381   1_565     S
V28     V47    10.381   .     S
V28     V39    10.381   .     S
V28     V40    10.381   .     S
V28     V48    10.381   .     S
V29     V14    10.381   1_554     S
V29     V16    10.381   1_554     S
V29     V42    10.381   1_654     S
V29     V34    10.381   1_654     S
V29     V33    10.381   1_655     S
V29     V41    10.381   1_655     S
V29     V17    8.476   1_655     S
V30     V41    10.381   1_655     S
V30     V33    10.381   1_655     S
V30     V34    10.381   1_655     S
V30     V42    10.381   1_655     S
V30     V18    8.476   1_655     S
V31     V16    10.381   1_554     S
V31     V5    10.381   1_565     S
V31     V14    10.381   1_564     S
V31     V44    10.381   1_654     S
V31     V36    10.381   1_654     S
V31     V35    10.381   1_655     S
V31     V43    10.381   1_655     S
V31     V19    8.476   1_655     S
V32     V6    10.381   1_565     S
V32     V13    10.381   1_565     S
V32     V43    10.381   1_655     S
V32     V35    10.381   1_655     S
V32     V36    10.381   1_655     S
V32     V44    10.381   1_655     S
V32     V20    8.476   1_655     S
V33     V13    10.381   1_455     S
V33     V5    10.381   1_455     S
V33     V30    10.381   1_455     S
V33     V29    10.381   1_455     S
V33     V41    8.476   .     S
V33     V43    8.476   1_545     S
V34     V14    10.381   1_455     S
V34     V6    10.381   1_455     S
V34     V29    10.381   1_456     S
V34     V17    10.381   1_556     S
V34     V30    10.381   1_455     S
V34     V42    8.476   .     S
V34     V44    8.476   1_545     S
V35     V15    10.381   1_455     S
V35     V7    10.381   1_455     S
V35     V32    10.381   1_455     S
V35     V31    10.381   1_455     S
V35     V43    8.476   .     S
V35     V41    8.476   .     S
V36     V16    10.381   1_455     S
V36     V8    10.381   1_455     S
V36     V31    10.381   1_456     S
V36     V19    10.381   1_556     S
V36     V32    10.381   1_455     S
V36     V44    8.476   .     S
V36     V42    8.476   .     S
V37     V45    8.476   .     S
V37     V47    8.476   1_545     S
V38     V25    10.381   1_556     S
V38     V21    10.381   1_556     S
V38     V46    8.476   .     S
V38     V48    8.476   1_545     S
V39     V47    8.476   .     S
V39     V45    8.476   .     S
V40     V27    10.381   1_556     S
V40     V23    10.381   1_556     S
V40     V48    8.476   .     S
V40     V46    8.476   .     S
V41     V7    10.381   1_455     S
V41     V15    10.381   1_455     S
V41     V30    10.381   1_455     S
V41     V29    10.381   1_455     S
V42     V8    10.381   1_455     S
V42     V16    10.381   1_455     S
V42     V17    10.381   1_556     S
V42     V29    10.381   1_456     S
V42     V30    10.381   1_455     S
V43     V5    10.381   1_465     S
V43     V13    10.381   1_465     S
V43     V9    10.381   1_565     S
V43     V1    10.381   1_565     S
V43     V32    10.381   1_455     S
V43     V31    10.381   1_455     S
V43     V33    8.476   1_565     S
V44     V6    10.381   1_465     S
V44     V14    10.381   1_465     S
V44     V10    10.381   1_565     S
V44     V2    10.381   1_565     S
V44     V19    10.381   1_556     S
V44     V31    10.381   1_456     S
V44     V32    10.381   1_455     S
V44     V34    8.476   1_565     S
V46     V21    10.381   1_556     S
V46     V25    10.381   1_556     S
V47     V1    10.381   1_565     S
V47     V9    10.381   1_565     S
V47     V13    10.381   1_565     S
V47     V5    10.381   1_565     S
V47     V37    8.476   1_565     S
V48     V2    10.381   1_565     S
V48     V10    10.381   1_565     S
V48     V14    10.381   1_565     S
V48     V6    10.381   1_565     S
V48     V23    10.381   1_556     S
V48     V27    10.381   1_556     S
V48     V38    8.476   1_565     S
