data_lcx
_audit_creation_date              2019-12-31
_audit_creation_method            'Pymatgen'
_symmetry_space_group_name_H-M    'P1'
_symmetry_Int_Tables_number       1
loop_
_symmetry_equiv_pos_as_xyz
  x,y,z
_cell_length_a                    32.6598
_cell_length_b                    32.6598
_cell_length_c                    32.6598
_cell_angle_alpha                 90.0
_cell_angle_beta                 90.0
_cell_angle_gamma                 90.0
loop_
_atom_site_label
_atom_site_type_symbol
_atom_site_fract_x
_atom_site_fract_y
_atom_site_fract_z
V1     V     0.125   0.25   0.0
V2     V     0.125   0.25   0.5
V3     V     0.125   0.75   0.0
V4     V     0.125   0.75   0.5
V5     V     0.625   0.25   0.0
V6     V     0.625   0.25   0.5
V7     V     0.625   0.75   0.0
V8     V     0.625   0.75   0.5
V9     V     0.375   0.25   0.0
V10     V     0.375   0.25   0.5
V11     V     0.375   0.75   0.0
V12     V     0.375   0.75   0.5
V13     V     0.875   0.25   0.0
V14     V     0.875   0.25   0.5
V15     V     0.875   0.75   0.0
V16     V     0.875   0.75   0.5
V17     V     0.25   0.0   0.125
V18     V     0.25   0.0   0.625
V19     V     0.25   0.5   0.125
V20     V     0.25   0.5   0.625
V21     V     0.75   0.0   0.125
V22     V     0.75   0.0   0.625
V23     V     0.75   0.5   0.125
V24     V     0.75   0.5   0.625
V25     V     0.25   0.0   0.375
V26     V     0.25   0.0   0.875
V27     V     0.25   0.5   0.375
V28     V     0.25   0.5   0.875
V29     V     0.75   0.0   0.375
V30     V     0.75   0.0   0.875
V31     V     0.75   0.5   0.375
V32     V     0.75   0.5   0.875
V33     V     0.0   0.125   0.25
V34     V     0.0   0.125   0.75
V35     V     0.0   0.625   0.25
V36     V     0.0   0.625   0.75
V37     V     0.5   0.125   0.25
V38     V     0.5   0.125   0.75
V39     V     0.5   0.625   0.25
V40     V     0.5   0.625   0.75
V41     V     0.0   0.375   0.25
V42     V     0.0   0.375   0.75
V43     V     0.0   0.875   0.25
V44     V     0.0   0.875   0.75
V45     V     0.5   0.375   0.25
V46     V     0.5   0.375   0.75
V47     V     0.5   0.875   0.25
V48     V     0.5   0.875   0.75
loop_
_geom_bond_atom_site_label_1
_geom_bond_atom_site_label_2
_geom_bond_distance
_geom_bond_site_symmetry_2
_ccdc_geom_bond_type
V1     V33    10.0   .     S
V1     V41    10.0   .     S
V1     V42    10.0   1_554     S
V1     V34    10.0   1_554     S
V1     V17    10.0   .     S
V1     V26    10.0   1_554     S
V1     V19    10.0   .     S
V1     V28    10.0   1_554     S
V2     V34    10.0   .     S
V2     V42    10.0   .     S
V2     V41    10.0   .     S
V2     V33    10.0   .     S
V2     V18    10.0   .     S
V2     V25    10.0   .     S
V2     V20    10.0   .     S
V2     V27    10.0   .     S
V3     V35    10.0   .     S
V3     V43    10.0   .     S
V3     V44    10.0   1_554     S
V3     V36    10.0   1_554     S
V3     V19    10.0   .     S
V3     V28    10.0   1_554     S
V3     V17    10.0   1_565     S
V3     V26    10.0   1_564     S
V4     V36    10.0   .     S
V4     V44    10.0   .     S
V4     V43    10.0   .     S
V4     V35    10.0   .     S
V4     V20    10.0   .     S
V4     V27    10.0   .     S
V4     V18    10.0   1_565     S
V4     V25    10.0   1_565     S
V5     V37    10.0   .     S
V5     V45    10.0   .     S
V5     V46    10.0   1_554     S
V5     V38    10.0   1_554     S
V5     V21    10.0   .     S
V5     V30    10.0   1_554     S
V5     V23    10.0   .     S
V5     V32    10.0   1_554     S
V6     V38    10.0   .     S
V6     V46    10.0   .     S
V6     V45    10.0   .     S
V6     V37    10.0   .     S
V6     V22    10.0   .     S
V6     V29    10.0   .     S
V6     V24    10.0   .     S
V6     V31    10.0   .     S
V7     V39    10.0   .     S
V7     V47    10.0   .     S
V7     V48    10.0   1_554     S
V7     V40    10.0   1_554     S
V7     V23    10.0   .     S
V7     V32    10.0   1_554     S
V7     V21    10.0   1_565     S
V7     V30    10.0   1_564     S
V8     V40    10.0   .     S
V8     V48    10.0   .     S
V8     V47    10.0   .     S
V8     V39    10.0   .     S
V8     V24    10.0   .     S
V8     V31    10.0   .     S
V8     V22    10.0   1_565     S
V8     V29    10.0   1_565     S
V9     V37    10.0   .     S
V9     V45    10.0   .     S
V9     V46    10.0   1_554     S
V9     V38    10.0   1_554     S
V9     V26    10.0   1_554     S
V9     V17    10.0   .     S
V9     V19    10.0   .     S
V9     V28    10.0   1_554     S
V10     V38    10.0   .     S
V10     V46    10.0   .     S
V10     V45    10.0   .     S
V10     V37    10.0   .     S
V10     V25    10.0   .     S
V10     V18    10.0   .     S
V10     V20    10.0   .     S
V10     V27    10.0   .     S
V11     V39    10.0   .     S
V11     V47    10.0   .     S
V11     V48    10.0   1_554     S
V11     V40    10.0   1_554     S
V11     V28    10.0   1_554     S
V11     V19    10.0   .     S
V11     V17    10.0   1_565     S
V11     V26    10.0   1_564     S
V12     V40    10.0   .     S
V12     V48    10.0   .     S
V12     V47    10.0   .     S
V12     V39    10.0   .     S
V12     V27    10.0   .     S
V12     V20    10.0   .     S
V12     V18    10.0   1_565     S
V12     V25    10.0   1_565     S
V13     V33    10.0   1_655     S
V13     V41    10.0   1_655     S
V13     V42    10.0   1_654     S
V13     V34    10.0   1_654     S
V13     V30    10.0   1_554     S
V13     V21    10.0   .     S
V13     V23    10.0   .     S
V13     V32    10.0   1_554     S
V14     V34    10.0   1_655     S
V14     V42    10.0   1_655     S
V14     V41    10.0   1_655     S
V14     V33    10.0   1_655     S
V14     V29    10.0   .     S
V14     V22    10.0   .     S
V14     V24    10.0   .     S
V14     V31    10.0   .     S
V15     V35    10.0   1_655     S
V15     V43    10.0   1_655     S
V15     V44    10.0   1_654     S
V15     V36    10.0   1_654     S
V15     V32    10.0   1_554     S
V15     V23    10.0   .     S
V15     V21    10.0   1_565     S
V15     V30    10.0   1_564     S
V16     V36    10.0   1_655     S
V16     V44    10.0   1_655     S
V16     V43    10.0   1_655     S
V16     V35    10.0   1_655     S
V16     V31    10.0   .     S
V16     V24    10.0   .     S
V16     V22    10.0   1_565     S
V16     V29    10.0   1_565     S
V17     V11    10.0   1_545     S
V17     V3    10.0   1_545     S
V17     V33    10.0   .     S
V17     V43    10.0   1_545     S
V17     V47    10.0   1_545     S
V17     V37    10.0   .     S
V18     V12    10.0   1_545     S
V18     V4    10.0   1_545     S
V18     V34    10.0   .     S
V18     V44    10.0   1_545     S
V18     V48    10.0   1_545     S
V18     V38    10.0   .     S
V19     V35    10.0   .     S
V19     V41    10.0   .     S
V19     V45    10.0   .     S
V19     V39    10.0   .     S
V20     V36    10.0   .     S
V20     V42    10.0   .     S
V20     V46    10.0   .     S
V20     V40    10.0   .     S
V21     V15    10.0   1_545     S
V21     V7    10.0   1_545     S
V21     V37    10.0   .     S
V21     V47    10.0   1_545     S
V21     V43    10.0   1_645     S
V21     V33    10.0   1_655     S
V22     V16    10.0   1_545     S
V22     V8    10.0   1_545     S
V22     V38    10.0   .     S
V22     V48    10.0   1_545     S
V22     V44    10.0   1_645     S
V22     V34    10.0   1_655     S
V23     V39    10.0   .     S
V23     V45    10.0   .     S
V23     V41    10.0   1_655     S
V23     V35    10.0   1_655     S
V24     V40    10.0   .     S
V24     V46    10.0   .     S
V24     V42    10.0   1_655     S
V24     V36    10.0   1_655     S
V25     V4    10.0   1_545     S
V25     V12    10.0   1_545     S
V25     V33    10.0   .     S
V25     V43    10.0   1_545     S
V25     V37    10.0   .     S
V25     V47    10.0   1_545     S
V26     V9    10.0   1_556     S
V26     V1    10.0   1_556     S
V26     V3    10.0   1_546     S
V26     V11    10.0   1_546     S
V26     V34    10.0   .     S
V26     V44    10.0   1_545     S
V26     V38    10.0   .     S
V26     V48    10.0   1_545     S
V27     V35    10.0   .     S
V27     V41    10.0   .     S
V27     V39    10.0   .     S
V27     V45    10.0   .     S
V28     V11    10.0   1_556     S
V28     V3    10.0   1_556     S
V28     V1    10.0   1_556     S
V28     V9    10.0   1_556     S
V28     V36    10.0   .     S
V28     V42    10.0   .     S
V28     V40    10.0   .     S
V28     V46    10.0   .     S
V29     V8    10.0   1_545     S
V29     V16    10.0   1_545     S
V29     V37    10.0   .     S
V29     V47    10.0   1_545     S
V29     V33    10.0   1_655     S
V29     V43    10.0   1_645     S
V30     V13    10.0   1_556     S
V30     V5    10.0   1_556     S
V30     V7    10.0   1_546     S
V30     V15    10.0   1_546     S
V30     V38    10.0   .     S
V30     V48    10.0   1_545     S
V30     V34    10.0   1_655     S
V30     V44    10.0   1_645     S
V31     V39    10.0   .     S
V31     V45    10.0   .     S
V31     V35    10.0   1_655     S
V31     V41    10.0   1_655     S
V32     V15    10.0   1_556     S
V32     V7    10.0   1_556     S
V32     V5    10.0   1_556     S
V32     V13    10.0   1_556     S
V32     V40    10.0   .     S
V32     V46    10.0   .     S
V32     V36    10.0   1_655     S
V32     V42    10.0   1_655     S
V33     V13    10.0   1_455     S
V33     V14    10.0   1_455     S
V33     V29    10.0   1_455     S
V33     V21    10.0   1_455     S
V34     V14    10.0   1_455     S
V34     V13    10.0   1_456     S
V34     V1    10.0   1_556     S
V34     V30    10.0   1_455     S
V34     V22    10.0   1_455     S
V35     V15    10.0   1_455     S
V35     V16    10.0   1_455     S
V35     V31    10.0   1_455     S
V35     V23    10.0   1_455     S
V36     V16    10.0   1_455     S
V36     V15    10.0   1_456     S
V36     V3    10.0   1_556     S
V36     V32    10.0   1_455     S
V36     V24    10.0   1_455     S
V38     V9    10.0   1_556     S
V38     V5    10.0   1_556     S
V40     V11    10.0   1_556     S
V40     V7    10.0   1_556     S
V41     V13    10.0   1_455     S
V41     V14    10.0   1_455     S
V41     V31    10.0   1_455     S
V41     V23    10.0   1_455     S
V42     V14    10.0   1_455     S
V42     V1    10.0   1_556     S
V42     V13    10.0   1_456     S
V42     V32    10.0   1_455     S
V42     V24    10.0   1_455     S
V43     V15    10.0   1_455     S
V43     V16    10.0   1_455     S
V43     V25    10.0   1_565     S
V43     V17    10.0   1_565     S
V43     V29    10.0   1_465     S
V43     V21    10.0   1_465     S
V44     V16    10.0   1_455     S
V44     V3    10.0   1_556     S
V44     V15    10.0   1_456     S
V44     V26    10.0   1_565     S
V44     V18    10.0   1_565     S
V44     V30    10.0   1_465     S
V44     V22    10.0   1_465     S
V46     V5    10.0   1_556     S
V46     V9    10.0   1_556     S
V47     V29    10.0   1_565     S
V47     V21    10.0   1_565     S
V47     V25    10.0   1_565     S
V47     V17    10.0   1_565     S
V48     V7    10.0   1_556     S
V48     V11    10.0   1_556     S
V48     V30    10.0   1_565     S
V48     V22    10.0   1_565     S
V48     V26    10.0   1_565     S
V48     V18    10.0   1_565     S
