data_lcz
_audit_creation_date              2019-12-31
_audit_creation_method            'Pymatgen'
_symmetry_space_group_name_H-M    'P1'
_symmetry_Int_Tables_number       1
loop_
_symmetry_equiv_pos_as_xyz
  x,y,z
_cell_length_a                    21.3808
_cell_length_b                    21.3808
_cell_length_c                    21.3808
_cell_angle_alpha                 90.0
_cell_angle_beta                 90.0
_cell_angle_gamma                 90.0
loop_
_atom_site_label
_atom_site_type_symbol
_atom_site_fract_x
_atom_site_fract_y
_atom_site_fract_z
V1     V     0.4375   0.0625   0.3125
V2     V     0.4375   0.0625   0.8125
V3     V     0.4375   0.5625   0.3125
V4     V     0.4375   0.5625   0.8125
V5     V     0.9375   0.0625   0.3125
V6     V     0.9375   0.0625   0.8125
V7     V     0.9375   0.5625   0.3125
V8     V     0.9375   0.5625   0.8125
V9     V     0.0625   0.3125   0.4375
V10     V     0.0625   0.3125   0.9375
V11     V     0.0625   0.8125   0.4375
V12     V     0.0625   0.8125   0.9375
V13     V     0.5625   0.3125   0.4375
V14     V     0.5625   0.3125   0.9375
V15     V     0.5625   0.8125   0.4375
V16     V     0.5625   0.8125   0.9375
V17     V     0.3125   0.4375   0.0625
V18     V     0.3125   0.4375   0.5625
V19     V     0.3125   0.9375   0.0625
V20     V     0.3125   0.9375   0.5625
V21     V     0.8125   0.4375   0.0625
V22     V     0.8125   0.4375   0.5625
V23     V     0.8125   0.9375   0.0625
V24     V     0.8125   0.9375   0.5625
V25     V     0.1875   0.1875   0.1875
V26     V     0.1875   0.1875   0.6875
V27     V     0.1875   0.6875   0.1875
V28     V     0.1875   0.6875   0.6875
V29     V     0.6875   0.1875   0.1875
V30     V     0.6875   0.1875   0.6875
V31     V     0.6875   0.6875   0.1875
V32     V     0.6875   0.6875   0.6875
loop_
_geom_bond_atom_site_label_1
_geom_bond_atom_site_label_2
_geom_bond_distance
_geom_bond_site_symmetry_2
_ccdc_geom_bond_type
V1     V18    10.0   .     S
V1     V17    10.0   .     S
V1     V14    10.0   1_554     S
V1     V16    10.0   1_544     S
V1     V23    10.0   1_545     S
V1     V24    10.0   1_545     S
V1     V27    10.0   1_545     S
V1     V31    10.0   1_545     S
V1     V30    10.0   .     S
V1     V26    10.0   .     S
V1     V11    10.0   1_545     S
V1     V9    10.0   .     S
V2     V17    10.0   1_556     S
V2     V18    10.0   .     S
V2     V13    10.0   .     S
V2     V15    10.0   1_545     S
V2     V24    10.0   1_545     S
V2     V23    10.0   1_546     S
V2     V28    10.0   1_545     S
V2     V32    10.0   1_545     S
V2     V29    10.0   1_556     S
V2     V25    10.0   1_556     S
V2     V12    10.0   1_545     S
V2     V10    10.0   .     S
V3     V20    10.0   .     S
V3     V19    10.0   .     S
V3     V16    10.0   1_554     S
V3     V14    10.0   1_554     S
V3     V21    10.0   .     S
V3     V22    10.0   .     S
V3     V25    10.0   .     S
V3     V29    10.0   .     S
V3     V32    10.0   .     S
V3     V28    10.0   .     S
V3     V9    10.0   .     S
V3     V11    10.0   .     S
V4     V19    10.0   1_556     S
V4     V20    10.0   .     S
V4     V15    10.0   .     S
V4     V13    10.0   .     S
V4     V22    10.0   .     S
V4     V21    10.0   1_556     S
V4     V26    10.0   .     S
V4     V30    10.0   .     S
V4     V31    10.0   1_556     S
V4     V27    10.0   1_556     S
V4     V10    10.0   .     S
V4     V12    10.0   .     S
V5     V22    10.0   .     S
V5     V21    10.0   .     S
V5     V10    10.0   1_654     S
V5     V12    10.0   1_644     S
V5     V19    10.0   1_645     S
V5     V20    10.0   1_645     S
V5     V31    10.0   1_545     S
V5     V27    10.0   1_645     S
V5     V26    10.0   1_655     S
V5     V30    10.0   .     S
V5     V15    10.0   1_545     S
V5     V13    10.0   .     S
V6     V21    10.0   1_556     S
V6     V22    10.0   .     S
V6     V9    10.0   1_655     S
V6     V11    10.0   1_645     S
V6     V20    10.0   1_645     S
V6     V19    10.0   1_646     S
V6     V32    10.0   1_545     S
V6     V28    10.0   1_645     S
V6     V25    10.0   1_656     S
V6     V29    10.0   1_556     S
V6     V16    10.0   1_545     S
V6     V14    10.0   .     S
V7     V24    10.0   .     S
V7     V23    10.0   .     S
V7     V12    10.0   1_654     S
V7     V10    10.0   1_654     S
V7     V17    10.0   1_655     S
V7     V18    10.0   1_655     S
V7     V29    10.0   .     S
V7     V25    10.0   1_655     S
V7     V28    10.0   1_655     S
V7     V32    10.0   .     S
V7     V13    10.0   .     S
V7     V15    10.0   .     S
V8     V23    10.0   1_556     S
V8     V24    10.0   .     S
V8     V11    10.0   1_655     S
V8     V9    10.0   1_655     S
V8     V18    10.0   1_655     S
V8     V17    10.0   1_656     S
V8     V30    10.0   .     S
V8     V26    10.0   1_655     S
V8     V27    10.0   1_656     S
V8     V31    10.0   1_556     S
V8     V14    10.0   .     S
V8     V16    10.0   .     S
V9     V30    10.0   1_455     S
V9     V29    10.0   1_455     S
V9     V6    10.0   1_455     S
V9     V8    10.0   1_455     S
V9     V27    10.0   .     S
V9     V28    10.0   .     S
V9     V17    10.0   .     S
V9     V21    10.0   1_455     S
V9     V24    10.0   1_445     S
V9     V20    10.0   1_545     S
V10     V29    10.0   1_456     S
V10     V30    10.0   1_455     S
V10     V5    10.0   1_456     S
V10     V7    10.0   1_456     S
V10     V28    10.0   .     S
V10     V27    10.0   1_556     S
V10     V18    10.0   .     S
V10     V22    10.0   1_455     S
V10     V23    10.0   1_446     S
V10     V19    10.0   1_546     S
V11     V32    10.0   1_455     S
V11     V31    10.0   1_455     S
V11     V8    10.0   1_455     S
V11     V6    10.0   1_465     S
V11     V25    10.0   1_565     S
V11     V26    10.0   1_565     S
V11     V19    10.0   .     S
V11     V23    10.0   1_455     S
V11     V22    10.0   1_455     S
V11     V18    10.0   .     S
V11     V1    10.0   1_565     S
V12     V31    10.0   1_456     S
V12     V32    10.0   1_455     S
V12     V7    10.0   1_456     S
V12     V5    10.0   1_466     S
V12     V26    10.0   1_565     S
V12     V25    10.0   1_566     S
V12     V20    10.0   .     S
V12     V24    10.0   1_455     S
V12     V21    10.0   1_456     S
V12     V17    10.0   1_556     S
V12     V2    10.0   1_565     S
V13     V26    10.0   .     S
V13     V25    10.0   .     S
V13     V31    10.0   .     S
V13     V32    10.0   .     S
V13     V21    10.0   .     S
V13     V17    10.0   .     S
V13     V20    10.0   1_545     S
V13     V24    10.0   1_545     S
V14     V25    10.0   1_556     S
V14     V26    10.0   .     S
V14     V1    10.0   1_556     S
V14     V3    10.0   1_556     S
V14     V32    10.0   .     S
V14     V31    10.0   1_556     S
V14     V22    10.0   .     S
V14     V18    10.0   .     S
V14     V19    10.0   1_546     S
V14     V23    10.0   1_546     S
V15     V28    10.0   .     S
V15     V27    10.0   .     S
V15     V2    10.0   1_565     S
V15     V29    10.0   1_565     S
V15     V30    10.0   1_565     S
V15     V23    10.0   .     S
V15     V19    10.0   .     S
V15     V18    10.0   .     S
V15     V22    10.0   .     S
V15     V5    10.0   1_565     S
V16     V27    10.0   1_556     S
V16     V28    10.0   .     S
V16     V3    10.0   1_556     S
V16     V1    10.0   1_566     S
V16     V30    10.0   1_565     S
V16     V29    10.0   1_566     S
V16     V24    10.0   .     S
V16     V20    10.0   .     S
V16     V17    10.0   1_556     S
V16     V21    10.0   1_556     S
V16     V6    10.0   1_565     S
V17     V2    10.0   1_554     S
V17     V29    10.0   .     S
V17     V31    10.0   .     S
V17     V7    10.0   1_455     S
V17     V8    10.0   1_454     S
V17     V16    10.0   1_554     S
V17     V12    10.0   1_554     S
V17     V28    10.0   1_554     S
V17     V26    10.0   1_554     S
V18     V30    10.0   .     S
V18     V32    10.0   .     S
V18     V8    10.0   1_455     S
V18     V7    10.0   1_455     S
V18     V27    10.0   .     S
V18     V25    10.0   .     S
V19     V4    10.0   1_554     S
V19     V31    10.0   .     S
V19     V29    10.0   1_565     S
V19     V5    10.0   1_465     S
V19     V6    10.0   1_464     S
V19     V14    10.0   1_564     S
V19     V10    10.0   1_564     S
V19     V26    10.0   1_564     S
V19     V28    10.0   1_554     S
V20     V32    10.0   .     S
V20     V30    10.0   1_565     S
V20     V6    10.0   1_465     S
V20     V5    10.0   1_465     S
V20     V13    10.0   1_565     S
V20     V9    10.0   1_565     S
V20     V25    10.0   1_565     S
V20     V27    10.0   .     S
V21     V6    10.0   1_554     S
V21     V25    10.0   1_655     S
V21     V27    10.0   1_655     S
V21     V4    10.0   1_554     S
V21     V9    10.0   1_655     S
V21     V12    10.0   1_654     S
V21     V16    10.0   1_554     S
V21     V32    10.0   1_554     S
V21     V30    10.0   1_554     S
V22     V26    10.0   1_655     S
V22     V28    10.0   1_655     S
V22     V10    10.0   1_655     S
V22     V11    10.0   1_655     S
V22     V31    10.0   .     S
V22     V29    10.0   .     S
V23     V8    10.0   1_554     S
V23     V27    10.0   1_655     S
V23     V25    10.0   1_665     S
V23     V1    10.0   1_565     S
V23     V2    10.0   1_564     S
V23     V11    10.0   1_655     S
V23     V10    10.0   1_664     S
V23     V14    10.0   1_564     S
V23     V30    10.0   1_564     S
V23     V32    10.0   1_554     S
V24     V28    10.0   1_655     S
V24     V26    10.0   1_665     S
V24     V2    10.0   1_565     S
V24     V1    10.0   1_565     S
V24     V12    10.0   1_655     S
V24     V9    10.0   1_665     S
V24     V13    10.0   1_565     S
V24     V29    10.0   1_565     S
V24     V31    10.0   .     S
V25     V14    10.0   1_554     S
V25     V21    10.0   1_455     S
V25     V23    10.0   1_445     S
V25     V11    10.0   1_545     S
V25     V12    10.0   1_544     S
V25     V7    10.0   1_455     S
V25     V6    10.0   1_454     S
V25     V2    10.0   1_554     S
V25     V20    10.0   1_545     S
V26     V22    10.0   1_455     S
V26     V24    10.0   1_445     S
V26     V12    10.0   1_545     S
V26     V11    10.0   1_545     S
V26     V8    10.0   1_455     S
V26     V5    10.0   1_455     S
V26     V19    10.0   1_546     S
V26     V17    10.0   1_556     S
V27     V16    10.0   1_554     S
V27     V23    10.0   1_455     S
V27     V21    10.0   1_455     S
V27     V10    10.0   1_554     S
V27     V1    10.0   1_565     S
V27     V5    10.0   1_465     S
V27     V8    10.0   1_454     S
V27     V4    10.0   1_554     S
V28     V24    10.0   1_455     S
V28     V22    10.0   1_455     S
V28     V2    10.0   1_565     S
V28     V6    10.0   1_465     S
V28     V7    10.0   1_455     S
V28     V17    10.0   1_556     S
V28     V19    10.0   1_556     S
V29     V10    10.0   1_654     S
V29     V9    10.0   1_655     S
V29     V19    10.0   1_545     S
V29     V15    10.0   1_545     S
V29     V16    10.0   1_544     S
V29     V2    10.0   1_554     S
V29     V6    10.0   1_554     S
V29     V24    10.0   1_545     S
V30     V9    10.0   1_655     S
V30     V10    10.0   1_655     S
V30     V20    10.0   1_545     S
V30     V16    10.0   1_545     S
V30     V15    10.0   1_545     S
V30     V23    10.0   1_546     S
V30     V21    10.0   1_556     S
V31     V12    10.0   1_654     S
V31     V11    10.0   1_655     S
V31     V14    10.0   1_554     S
V31     V5    10.0   1_565     S
V31     V1    10.0   1_565     S
V31     V4    10.0   1_554     S
V31     V8    10.0   1_554     S
V32     V11    10.0   1_655     S
V32     V12    10.0   1_655     S
V32     V6    10.0   1_565     S
V32     V2    10.0   1_565     S
V32     V21    10.0   1_556     S
V32     V23    10.0   1_556     S
