data_lfm
_audit_creation_date              2019-12-31
_audit_creation_method            'Pymatgen'
_symmetry_space_group_name_H-M    'P1'
_symmetry_Int_Tables_number       1
loop_
_symmetry_equiv_pos_as_xyz
  x,y,z
_cell_length_a                    36.8548
_cell_length_b                    40.0
_cell_length_c                    42.4145
_cell_angle_alpha                 90.0
_cell_angle_beta                 90.0
_cell_angle_gamma                 90.0
loop_
_atom_site_label
_atom_site_type_symbol
_atom_site_fract_x
_atom_site_fract_y
_atom_site_fract_z
Er1     Er     0.25   0.375   0.2958
Er2     Er     0.25   0.875   0.2958
Er3     Er     0.75   0.375   0.2958
Er4     Er     0.75   0.875   0.2958
Er5     Er     0.25   0.125   0.7042
Er6     Er     0.25   0.625   0.7042
Er7     Er     0.75   0.125   0.7042
Er8     Er     0.75   0.625   0.7042
V9     V     0.25   0.25   0.5
V10     V     0.25   0.75   0.5
V11     V     0.75   0.25   0.5
V12     V     0.75   0.75   0.5
V13     V     0.25   0.0   0.5
V14     V     0.25   0.5   0.5
V15     V     0.75   0.0   0.5
V16     V     0.75   0.5   0.5
V17     V     0.0   0.0   0.0
V18     V     0.0   0.5   0.0
V19     V     0.5   0.0   0.0
V20     V     0.5   0.5   0.0
V21     V     0.0   0.25   0.0
V22     V     0.0   0.75   0.0
V23     V     0.5   0.25   0.0
V24     V     0.5   0.75   0.0
Er25     Er     0.0   0.375   0.2042
Er26     Er     0.0   0.875   0.2042
Er27     Er     0.5   0.375   0.2042
Er28     Er     0.5   0.875   0.2042
Er29     Er     0.0   0.125   0.7958
Er30     Er     0.0   0.625   0.7958
Er31     Er     0.5   0.125   0.7958
Er32     Er     0.5   0.625   0.7958
loop_
_geom_bond_atom_site_label_1
_geom_bond_atom_site_label_2
_geom_bond_distance
_geom_bond_site_symmetry_2
_ccdc_geom_bond_type
Er1     V9    10.0   .     S
Er1     V14    10.0   .     S
Er1     Er25    10.0   .     S
Er1     Er27    10.0   .     S
Er2     V10    10.0   .     S
Er2     V13    10.0   1_565     S
Er2     Er26    10.0   .     S
Er2     Er28    10.0   .     S
Er3     V11    10.0   .     S
Er3     V16    10.0   .     S
Er3     Er27    10.0   .     S
Er3     Er25    10.0   1_655     S
Er4     V12    10.0   .     S
Er4     V15    10.0   1_565     S
Er4     Er28    10.0   .     S
Er4     Er26    10.0   1_655     S
Er5     V9    10.0   .     S
Er5     V13    10.0   .     S
Er5     Er29    10.0   .     S
Er5     Er31    10.0   .     S
Er6     V10    10.0   .     S
Er6     V14    10.0   .     S
Er6     Er30    10.0   .     S
Er6     Er32    10.0   .     S
Er7     V11    10.0   .     S
Er7     V15    10.0   .     S
Er7     Er31    10.0   .     S
Er7     Er29    10.0   1_655     S
Er8     V12    10.0   .     S
Er8     V16    10.0   .     S
Er8     Er32    10.0   .     S
Er8     Er30    10.0   1_655     S
V9     V14    10.0   .     S
V9     V13    10.0   .     S
V10     V13    10.0   1_565     S
V10     V14    10.0   .     S
V11     V16    10.0   .     S
V11     V15    10.0   .     S
V12     V15    10.0   1_565     S
V12     V16    10.0   .     S
V13     Er2    10.0   1_545     S
V13     V10    10.0   1_545     S
V15     Er4    10.0   1_545     S
V15     V12    10.0   1_545     S
V17     Er29    10.0   1_554     S
V17     V21    10.0   .     S
V17     Er26    10.0   1_545     S
V17     V22    10.0   1_545     S
V18     Er30    10.0   1_554     S
V18     V22    10.0   .     S
V18     Er25    10.0   .     S
V18     V21    10.0   .     S
V19     Er31    10.0   1_554     S
V19     V23    10.0   .     S
V19     Er28    10.0   1_545     S
V19     V24    10.0   1_545     S
V20     Er32    10.0   1_554     S
V20     V24    10.0   .     S
V20     Er27    10.0   .     S
V20     V23    10.0   .     S
V21     Er29    10.0   1_554     S
V21     Er25    10.0   .     S
V22     Er30    10.0   1_554     S
V22     Er26    10.0   .     S
V22     V17    10.0   1_565     S
V23     Er31    10.0   1_554     S
V23     Er27    10.0   .     S
V24     Er32    10.0   1_554     S
V24     Er28    10.0   .     S
V24     V19    10.0   1_565     S
Er25     Er3    10.0   1_455     S
Er26     V17    10.0   1_565     S
Er26     Er4    10.0   1_455     S
Er28     V19    10.0   1_565     S
Er29     V17    10.0   1_556     S
Er29     V21    10.0   1_556     S
Er29     Er7    10.0   1_455     S
Er30     V18    10.0   1_556     S
Er30     V22    10.0   1_556     S
Er30     Er8    10.0   1_455     S
Er31     V19    10.0   1_556     S
Er31     V23    10.0   1_556     S
Er32     V20    10.0   1_556     S
Er32     V24    10.0   1_556     S
