data_lhb
_audit_creation_date              2019-12-31
_audit_creation_method            'Pymatgen'
_symmetry_space_group_name_H-M    'P1'
_symmetry_Int_Tables_number       1
loop_
_symmetry_equiv_pos_as_xyz
  x,y,z
_cell_length_a                    34.6406
_cell_length_b                    30.0003
_cell_length_c                    34.6411
_cell_angle_alpha                 90.0
_cell_angle_beta                 90.0
_cell_angle_gamma                 90.0
loop_
_atom_site_label
_atom_site_type_symbol
_atom_site_fract_x
_atom_site_fract_y
_atom_site_fract_z
V1     V     0.375   0.25   0.25
V2     V     0.375   0.5833   0.25
V3     V     0.375   0.9167   0.25
V4     V     0.875   0.25   0.25
V5     V     0.875   0.5833   0.25
V6     V     0.875   0.9167   0.25
V7     V     0.125   0.0833   0.25
V8     V     0.125   0.4167   0.25
V9     V     0.125   0.75   0.25
V10     V     0.625   0.0833   0.25
V11     V     0.625   0.4167   0.25
V12     V     0.625   0.75   0.25
V13     V     0.25   0.1667   0.0
V14     V     0.25   0.5   0.0
V15     V     0.25   0.8333   0.0
V16     V     0.75   0.1667   0.0
V17     V     0.75   0.5   0.0
V18     V     0.75   0.8333   0.0
V19     V     0.0   0.0   0.0
V20     V     0.0   0.3333   0.0
V21     V     0.0   0.6667   0.0
V22     V     0.5   0.0   0.0
V23     V     0.5   0.3333   0.0
V24     V     0.5   0.6667   0.0
V25     V     0.375   0.0833   0.75
V26     V     0.375   0.4167   0.75
V27     V     0.375   0.75   0.75
V28     V     0.875   0.0833   0.75
V29     V     0.875   0.4167   0.75
V30     V     0.875   0.75   0.75
V31     V     0.125   0.25   0.75
V32     V     0.125   0.5833   0.75
V33     V     0.125   0.9167   0.75
V34     V     0.625   0.25   0.75
V35     V     0.625   0.5833   0.75
V36     V     0.625   0.9167   0.75
V37     V     0.25   0.0   0.5
V38     V     0.25   0.3333   0.5
V39     V     0.25   0.6667   0.5
V40     V     0.75   0.0   0.5
V41     V     0.75   0.3333   0.5
V42     V     0.75   0.6667   0.5
V43     V     0.0   0.1667   0.5
V44     V     0.0   0.5   0.5
V45     V     0.0   0.8333   0.5
V46     V     0.5   0.1667   0.5
V47     V     0.5   0.5   0.5
V48     V     0.5   0.8333   0.5
loop_
_geom_bond_atom_site_label_1
_geom_bond_atom_site_label_2
_geom_bond_distance
_geom_bond_site_symmetry_2
_ccdc_geom_bond_type
V1     V46    10.0   .     S
V1     V38    10.0   .     S
V1     V8    10.0   .     S
V1     V3    10.0   1_545     S
V1     V2    10.0   .     S
V1     V10    10.0   .     S
V1     V23    10.0   .     S
V1     V13    10.0   .     S
V2     V47    10.0   .     S
V2     V39    10.0   .     S
V2     V9    10.0   .     S
V2     V3    10.0   .     S
V2     V11    10.0   .     S
V2     V24    10.0   .     S
V2     V14    10.0   .     S
V3     V48    10.0   .     S
V3     V37    10.0   1_565     S
V3     V7    10.0   1_565     S
V3     V1    10.0   1_565     S
V3     V12    10.0   .     S
V3     V22    10.0   1_565     S
V3     V15    10.0   .     S
V4     V43    10.0   1_655     S
V4     V41    10.0   .     S
V4     V11    10.0   .     S
V4     V6    10.0   1_545     S
V4     V5    10.0   .     S
V4     V7    10.0   1_655     S
V4     V20    10.0   1_655     S
V4     V16    10.0   .     S
V5     V44    10.0   1_655     S
V5     V42    10.0   .     S
V5     V12    10.0   .     S
V5     V6    10.0   .     S
V5     V8    10.0   1_655     S
V5     V21    10.0   1_655     S
V5     V17    10.0   .     S
V6     V45    10.0   1_655     S
V6     V40    10.0   1_565     S
V6     V10    10.0   1_565     S
V6     V4    10.0   1_565     S
V6     V9    10.0   1_655     S
V6     V19    10.0   1_665     S
V6     V18    10.0   .     S
V7     V43    10.0   .     S
V7     V37    10.0   .     S
V7     V3    10.0   1_545     S
V7     V8    10.0   .     S
V7     V9    10.0   1_545     S
V7     V4    10.0   1_455     S
V7     V19    10.0   .     S
V7     V13    10.0   .     S
V8     V44    10.0   .     S
V8     V38    10.0   .     S
V8     V9    10.0   .     S
V8     V5    10.0   1_455     S
V8     V20    10.0   .     S
V8     V14    10.0   .     S
V9     V45    10.0   .     S
V9     V39    10.0   .     S
V9     V7    10.0   1_565     S
V9     V6    10.0   1_455     S
V9     V21    10.0   .     S
V9     V15    10.0   .     S
V10     V46    10.0   .     S
V10     V40    10.0   .     S
V10     V6    10.0   1_545     S
V10     V11    10.0   .     S
V10     V12    10.0   1_545     S
V10     V22    10.0   .     S
V10     V16    10.0   .     S
V11     V47    10.0   .     S
V11     V41    10.0   .     S
V11     V12    10.0   .     S
V11     V23    10.0   .     S
V11     V17    10.0   .     S
V12     V48    10.0   .     S
V12     V42    10.0   .     S
V12     V10    10.0   1_565     S
V12     V24    10.0   .     S
V12     V18    10.0   .     S
V13     V23    10.0   .     S
V13     V15    10.0   1_545     S
V13     V14    10.0   .     S
V13     V19    10.0   .     S
V13     V31    10.0   1_554     S
V13     V25    10.0   1_554     S
V14     V24    10.0   .     S
V14     V15    10.0   .     S
V14     V20    10.0   .     S
V14     V32    10.0   1_554     S
V14     V26    10.0   1_554     S
V15     V22    10.0   1_565     S
V15     V13    10.0   1_565     S
V15     V21    10.0   .     S
V15     V33    10.0   1_554     S
V15     V27    10.0   1_554     S
V16     V20    10.0   1_655     S
V16     V18    10.0   1_545     S
V16     V17    10.0   .     S
V16     V22    10.0   .     S
V16     V34    10.0   1_554     S
V16     V28    10.0   1_554     S
V17     V21    10.0   1_655     S
V17     V18    10.0   .     S
V17     V23    10.0   .     S
V17     V35    10.0   1_554     S
V17     V29    10.0   1_554     S
V18     V19    10.0   1_665     S
V18     V16    10.0   1_565     S
V18     V24    10.0   .     S
V18     V36    10.0   1_554     S
V18     V30    10.0   1_554     S
V19     V18    10.0   1_445     S
V19     V20    10.0   .     S
V19     V21    10.0   1_545     S
V19     V6    10.0   1_445     S
V19     V33    10.0   1_544     S
V19     V28    10.0   1_454     S
V20     V16    10.0   1_455     S
V20     V21    10.0   .     S
V20     V4    10.0   1_455     S
V20     V31    10.0   1_554     S
V20     V29    10.0   1_454     S
V21     V17    10.0   1_455     S
V21     V19    10.0   1_565     S
V21     V5    10.0   1_455     S
V21     V32    10.0   1_554     S
V21     V30    10.0   1_454     S
V22     V15    10.0   1_545     S
V22     V23    10.0   .     S
V22     V24    10.0   1_545     S
V22     V3    10.0   1_545     S
V22     V36    10.0   1_544     S
V22     V25    10.0   1_554     S
V23     V24    10.0   .     S
V23     V34    10.0   1_554     S
V23     V26    10.0   1_554     S
V24     V22    10.0   1_565     S
V24     V35    10.0   1_554     S
V24     V27    10.0   1_554     S
V25     V22    10.0   1_556     S
V25     V13    10.0   1_556     S
V25     V31    10.0   .     S
V25     V26    10.0   .     S
V25     V27    10.0   1_545     S
V25     V36    10.0   1_545     S
V25     V46    10.0   .     S
V25     V37    10.0   .     S
V26     V23    10.0   1_556     S
V26     V14    10.0   1_556     S
V26     V32    10.0   .     S
V26     V27    10.0   .     S
V26     V34    10.0   .     S
V26     V47    10.0   .     S
V26     V38    10.0   .     S
V27     V24    10.0   1_556     S
V27     V15    10.0   1_556     S
V27     V33    10.0   .     S
V27     V25    10.0   1_565     S
V27     V35    10.0   .     S
V27     V48    10.0   .     S
V27     V39    10.0   .     S
V28     V19    10.0   1_656     S
V28     V16    10.0   1_556     S
V28     V34    10.0   .     S
V28     V29    10.0   .     S
V28     V30    10.0   1_545     S
V28     V33    10.0   1_645     S
V28     V43    10.0   1_655     S
V28     V40    10.0   .     S
V29     V20    10.0   1_656     S
V29     V17    10.0   1_556     S
V29     V35    10.0   .     S
V29     V30    10.0   .     S
V29     V31    10.0   1_655     S
V29     V44    10.0   1_655     S
V29     V41    10.0   .     S
V30     V21    10.0   1_656     S
V30     V18    10.0   1_556     S
V30     V36    10.0   .     S
V30     V28    10.0   1_565     S
V30     V32    10.0   1_655     S
V30     V45    10.0   1_655     S
V30     V42    10.0   .     S
V31     V20    10.0   1_556     S
V31     V13    10.0   1_556     S
V31     V33    10.0   1_545     S
V31     V32    10.0   .     S
V31     V29    10.0   1_455     S
V31     V43    10.0   .     S
V31     V38    10.0   .     S
V32     V21    10.0   1_556     S
V32     V14    10.0   1_556     S
V32     V33    10.0   .     S
V32     V30    10.0   1_455     S
V32     V44    10.0   .     S
V32     V39    10.0   .     S
V33     V19    10.0   1_566     S
V33     V15    10.0   1_556     S
V33     V31    10.0   1_565     S
V33     V28    10.0   1_465     S
V33     V45    10.0   .     S
V33     V37    10.0   1_565     S
V34     V23    10.0   1_556     S
V34     V16    10.0   1_556     S
V34     V36    10.0   1_545     S
V34     V35    10.0   .     S
V34     V46    10.0   .     S
V34     V41    10.0   .     S
V35     V24    10.0   1_556     S
V35     V17    10.0   1_556     S
V35     V36    10.0   .     S
V35     V47    10.0   .     S
V35     V42    10.0   .     S
V36     V22    10.0   1_566     S
V36     V18    10.0   1_556     S
V36     V34    10.0   1_565     S
V36     V25    10.0   1_565     S
V36     V48    10.0   .     S
V36     V40    10.0   1_565     S
V37     V3    10.0   1_545     S
V37     V46    10.0   .     S
V37     V38    10.0   .     S
V37     V39    10.0   1_545     S
V37     V45    10.0   1_545     S
V37     V33    10.0   1_545     S
V38     V47    10.0   .     S
V38     V39    10.0   .     S
V38     V43    10.0   .     S
V39     V48    10.0   .     S
V39     V37    10.0   1_565     S
V39     V44    10.0   .     S
V40     V6    10.0   1_545     S
V40     V43    10.0   1_655     S
V40     V41    10.0   .     S
V40     V42    10.0   1_545     S
V40     V48    10.0   1_545     S
V40     V36    10.0   1_545     S
V41     V44    10.0   1_655     S
V41     V42    10.0   .     S
V41     V46    10.0   .     S
V42     V45    10.0   1_655     S
V42     V40    10.0   1_565     S
V42     V47    10.0   .     S
V43     V4    10.0   1_455     S
V43     V40    10.0   1_455     S
V43     V45    10.0   1_545     S
V43     V44    10.0   .     S
V43     V28    10.0   1_455     S
V44     V5    10.0   1_455     S
V44     V41    10.0   1_455     S
V44     V45    10.0   .     S
V44     V29    10.0   1_455     S
V45     V6    10.0   1_455     S
V45     V42    10.0   1_455     S
V45     V37    10.0   1_565     S
V45     V43    10.0   1_565     S
V45     V30    10.0   1_455     S
V46     V48    10.0   1_545     S
V46     V47    10.0   .     S
V47     V48    10.0   .     S
V48     V40    10.0   1_565     S
V48     V46    10.0   1_565     S
