data_lib
_audit_creation_date              2019-12-31
_audit_creation_method            'Pymatgen'
_symmetry_space_group_name_H-M    'P1'
_symmetry_Int_Tables_number       1
loop_
_symmetry_equiv_pos_as_xyz
  x,y,z
_cell_length_a                    27.3206
_cell_length_b                    27.3206
_cell_length_c                    29.9997
_cell_angle_alpha                 90.0
_cell_angle_beta                 90.0
_cell_angle_gamma                 90.0
loop_
_atom_site_label
_atom_site_type_symbol
_atom_site_fract_x
_atom_site_fract_y
_atom_site_fract_z
V1     V     0.5   0.0   0.0
V2     V     0.5   0.0   0.3333
V3     V     0.5   0.0   0.6667
Er4     Er     0.817   0.183   0.0
Er5     Er     0.817   0.183   0.3333
Er6     Er     0.817   0.183   0.6667
Er7     Er     0.183   0.183   0.0
Er8     Er     0.183   0.183   0.3333
Er9     Er     0.183   0.183   0.6667
Er10     Er     0.183   0.817   0.0
Er11     Er     0.183   0.817   0.3333
Er12     Er     0.183   0.817   0.6667
Er13     Er     0.817   0.817   0.0
Er14     Er     0.817   0.817   0.3333
Er15     Er     0.817   0.817   0.6667
V16     V     0.0   0.5   0.0
V17     V     0.0   0.5   0.3333
V18     V     0.0   0.5   0.6667
loop_
_geom_bond_atom_site_label_1
_geom_bond_atom_site_label_2
_geom_bond_distance
_geom_bond_site_symmetry_2
_ccdc_geom_bond_type
V1     V2    10.0   .     S
V1     V3    10.0   1_554     S
V1     Er10    10.0   1_545     S
V1     Er7    10.0   .     S
V1     Er4    10.0   .     S
V1     Er13    10.0   1_545     S
V2     V3    10.0   .     S
V2     Er11    10.0   1_545     S
V2     Er8    10.0   .     S
V2     Er5    10.0   .     S
V2     Er14    10.0   1_545     S
V3     V1    10.0   1_556     S
V3     Er12    10.0   1_545     S
V3     Er9    10.0   .     S
V3     Er6    10.0   .     S
V3     Er15    10.0   1_545     S
Er4     Er13    10.0   1_545     S
Er4     Er7    10.0   1_655     S
Er4     Er5    10.0   .     S
Er4     Er6    10.0   1_554     S
Er4     V16    10.0   1_655     S
Er5     Er14    10.0   1_545     S
Er5     Er8    10.0   1_655     S
Er5     Er6    10.0   .     S
Er5     V17    10.0   1_655     S
Er6     Er15    10.0   1_545     S
Er6     Er9    10.0   1_655     S
Er6     Er4    10.0   1_556     S
Er6     V18    10.0   1_655     S
Er7     Er10    10.0   1_545     S
Er7     Er4    10.0   1_455     S
Er7     Er8    10.0   .     S
Er7     Er9    10.0   1_554     S
Er7     V16    10.0   .     S
Er8     Er11    10.0   1_545     S
Er8     Er5    10.0   1_455     S
Er8     Er9    10.0   .     S
Er8     V17    10.0   .     S
Er9     Er12    10.0   1_545     S
Er9     Er6    10.0   1_455     S
Er9     Er7    10.0   1_556     S
Er9     V18    10.0   .     S
Er10     V1    10.0   1_565     S
Er10     Er7    10.0   1_565     S
Er10     Er13    10.0   1_455     S
Er10     Er11    10.0   .     S
Er10     Er12    10.0   1_554     S
Er10     V16    10.0   .     S
Er11     V2    10.0   1_565     S
Er11     Er8    10.0   1_565     S
Er11     Er14    10.0   1_455     S
Er11     Er12    10.0   .     S
Er11     V17    10.0   .     S
Er12     V3    10.0   1_565     S
Er12     Er9    10.0   1_565     S
Er12     Er15    10.0   1_455     S
Er12     Er10    10.0   1_556     S
Er12     V18    10.0   .     S
Er13     V1    10.0   1_565     S
Er13     Er4    10.0   1_565     S
Er13     Er10    10.0   1_655     S
Er13     Er14    10.0   .     S
Er13     Er15    10.0   1_554     S
Er13     V16    10.0   1_655     S
Er14     V2    10.0   1_565     S
Er14     Er5    10.0   1_565     S
Er14     Er11    10.0   1_655     S
Er14     Er15    10.0   .     S
Er14     V17    10.0   1_655     S
Er15     V3    10.0   1_565     S
Er15     Er6    10.0   1_565     S
Er15     Er12    10.0   1_655     S
Er15     Er13    10.0   1_556     S
Er15     V18    10.0   1_655     S
V16     V17    10.0   .     S
V16     V18    10.0   1_554     S
V16     Er4    10.0   1_455     S
V16     Er13    10.0   1_455     S
V17     V18    10.0   .     S
V17     Er5    10.0   1_455     S
V17     Er14    10.0   1_455     S
V18     V16    10.0   1_556     S
V18     Er6    10.0   1_455     S
V18     Er15    10.0   1_455     S
