data_llj
_audit_creation_date              2019-12-31
_audit_creation_method            'Pymatgen'
_symmetry_space_group_name_H-M    'P1'
_symmetry_Int_Tables_number       1
loop_
_symmetry_equiv_pos_as_xyz
  x,y,z
_cell_length_a                    23.5718
_cell_length_b                    23.5718
_cell_length_c                    29.8104
_cell_angle_alpha                 90.0
_cell_angle_beta                 90.0
_cell_angle_gamma                 90.0
loop_
_atom_site_label
_atom_site_type_symbol
_atom_site_fract_x
_atom_site_fract_y
_atom_site_fract_z
V1     V     0.0   0.0   0.0
V2     V     0.0   0.0   0.5
Er3     Er     0.3   0.3   0.0
Er4     Er     0.3   0.3   0.5
Er5     Er     0.7   0.3   0.0
Er6     Er     0.7   0.3   0.5
Er7     Er     0.7   0.7   0.0
Er8     Er     0.7   0.7   0.5
Er9     Er     0.3   0.7   0.0
Er10     Er     0.3   0.7   0.5
V11     V     0.5   0.5   0.25
V12     V     0.5   0.5   0.75
Er13     Er     0.2   0.2   0.25
Er14     Er     0.2   0.2   0.75
Er15     Er     0.8   0.8   0.25
Er16     Er     0.8   0.8   0.75
Er17     Er     0.2   0.8   0.25
Er18     Er     0.2   0.8   0.75
Er19     Er     0.8   0.2   0.25
Er20     Er     0.8   0.2   0.75
loop_
_geom_bond_atom_site_label_1
_geom_bond_atom_site_label_2
_geom_bond_distance
_geom_bond_site_symmetry_2
_ccdc_geom_bond_type
V1     Er9    10.0   1_545     S
V1     Er17    10.0   1_545     S
V1     Er18    10.0   1_544     S
V1     Er7    10.0   1_445     S
V1     Er15    10.0   1_445     S
V1     Er16    10.0   1_444     S
V1     Er5    10.0   1_455     S
V1     Er19    10.0   1_455     S
V1     Er20    10.0   1_454     S
V1     Er3    10.0   .     S
V1     Er13    10.0   .     S
V1     Er14    10.0   1_554     S
V2     Er10    10.0   1_545     S
V2     Er18    10.0   1_545     S
V2     Er17    10.0   1_545     S
V2     Er8    10.0   1_445     S
V2     Er16    10.0   1_445     S
V2     Er15    10.0   1_445     S
V2     Er6    10.0   1_455     S
V2     Er20    10.0   1_455     S
V2     Er19    10.0   1_455     S
V2     Er4    10.0   .     S
V2     Er14    10.0   .     S
V2     Er13    10.0   .     S
Er3     V12    10.0   1_554     S
Er3     V11    10.0   .     S
Er4     V11    10.0   .     S
Er4     V12    10.0   .     S
Er5     V1    10.0   1_655     S
Er5     V12    10.0   1_554     S
Er5     V11    10.0   .     S
Er6     V2    10.0   1_655     S
Er6     V11    10.0   .     S
Er6     V12    10.0   .     S
Er7     V1    10.0   1_665     S
Er7     V12    10.0   1_554     S
Er7     V11    10.0   .     S
Er8     V2    10.0   1_665     S
Er8     V11    10.0   .     S
Er8     V12    10.0   .     S
Er9     V1    10.0   1_565     S
Er9     V12    10.0   1_554     S
Er9     V11    10.0   .     S
Er10     V2    10.0   1_565     S
Er10     V11    10.0   .     S
Er10     V12    10.0   .     S
V11     Er19    10.0   .     S
V11     Er13    10.0   .     S
V11     Er15    10.0   .     S
V11     Er17    10.0   .     S
V12     Er20    10.0   .     S
V12     Er5    10.0   1_556     S
V12     Er14    10.0   .     S
V12     Er3    10.0   1_556     S
V12     Er16    10.0   .     S
V12     Er7    10.0   1_556     S
V12     Er18    10.0   .     S
V12     Er9    10.0   1_556     S
Er14     V1    10.0   1_556     S
Er15     V1    10.0   1_665     S
Er15     V2    10.0   1_665     S
Er16     V2    10.0   1_665     S
Er16     V1    10.0   1_666     S
Er17     V1    10.0   1_565     S
Er17     V2    10.0   1_565     S
Er18     V2    10.0   1_565     S
Er18     V1    10.0   1_566     S
Er19     V1    10.0   1_655     S
Er19     V2    10.0   1_655     S
Er20     V2    10.0   1_655     S
Er20     V1    10.0   1_656     S
