data_llz
_audit_creation_date              2019-12-31
_audit_creation_method            'Pymatgen'
_symmetry_space_group_name_H-M    'P1'
_symmetry_Int_Tables_number       1
loop_
_symmetry_equiv_pos_as_xyz
  x,y,z
_cell_length_a                    39.5894
_cell_length_b                    39.5894
_cell_length_c                    32.7924
_cell_angle_alpha                 90.0
_cell_angle_beta                 90.0
_cell_angle_gamma                 90.0
loop_
_atom_site_label
_atom_site_type_symbol
_atom_site_fract_x
_atom_site_fract_y
_atom_site_fract_z
Ti1     Ti     0.0847   0.4153   0.702
Ti2     Ti     0.0847   0.9153   0.702
Ti3     Ti     0.5847   0.4153   0.702
Ti4     Ti     0.5847   0.9153   0.702
V5     V     0.4847   0.366   0.5
V6     V     0.4847   0.866   0.5
V7     V     0.9847   0.366   0.5
V8     V     0.9847   0.866   0.5
Ti9     Ti     0.0847   0.4153   0.298
Ti10     Ti     0.0847   0.9153   0.298
Ti11     Ti     0.5847   0.4153   0.298
Ti12     Ti     0.5847   0.9153   0.298
V13     V     0.134   0.0153   0.5
V14     V     0.134   0.5153   0.5
V15     V     0.634   0.0153   0.5
V16     V     0.634   0.5153   0.5
Ti17     Ti     0.4153   0.0847   0.702
Ti18     Ti     0.4153   0.5847   0.702
Ti19     Ti     0.9153   0.0847   0.702
Ti20     Ti     0.9153   0.5847   0.702
Ti21     Ti     0.4153   0.0847   0.298
Ti22     Ti     0.4153   0.5847   0.298
Ti23     Ti     0.9153   0.0847   0.298
Ti24     Ti     0.9153   0.5847   0.298
V25     V     0.366   0.4847   0.5
V26     V     0.366   0.9847   0.5
V27     V     0.866   0.4847   0.5
V28     V     0.866   0.9847   0.5
V29     V     0.0153   0.134   0.5
V30     V     0.0153   0.634   0.5
V31     V     0.5153   0.134   0.5
V32     V     0.5153   0.634   0.5
Er33     Er     0.25   0.25   0.5
Er34     Er     0.25   0.75   0.5
Er35     Er     0.75   0.25   0.5
Er36     Er     0.75   0.75   0.5
Ti37     Ti     0.3347   0.3347   0.798
Ti38     Ti     0.3347   0.8347   0.798
Ti39     Ti     0.8347   0.3347   0.798
Ti40     Ti     0.8347   0.8347   0.798
Ti41     Ti     0.3347   0.3347   0.202
Ti42     Ti     0.3347   0.8347   0.202
Ti43     Ti     0.8347   0.3347   0.202
Ti44     Ti     0.8347   0.8347   0.202
V45     V     0.384   0.2347   0.0
V46     V     0.384   0.7347   0.0
V47     V     0.884   0.2347   0.0
V48     V     0.884   0.7347   0.0
V49     V     0.2347   0.384   0.0
V50     V     0.2347   0.884   0.0
V51     V     0.7347   0.384   0.0
V52     V     0.7347   0.884   0.0
Ti53     Ti     0.1653   0.1653   0.798
Ti54     Ti     0.1653   0.6653   0.798
Ti55     Ti     0.6653   0.1653   0.798
Ti56     Ti     0.6653   0.6653   0.798
Ti57     Ti     0.1653   0.1653   0.202
Ti58     Ti     0.1653   0.6653   0.202
Ti59     Ti     0.6653   0.1653   0.202
Ti60     Ti     0.6653   0.6653   0.202
V61     V     0.116   0.2653   0.0
V62     V     0.116   0.7653   0.0
V63     V     0.616   0.2653   0.0
V64     V     0.616   0.7653   0.0
V65     V     0.2653   0.116   0.0
V66     V     0.2653   0.616   0.0
V67     V     0.7653   0.116   0.0
V68     V     0.7653   0.616   0.0
Er69     Er     0.0   0.0   0.0
Er70     Er     0.0   0.5   0.0
Er71     Er     0.5   0.0   0.0
Er72     Er     0.5   0.5   0.0
loop_
_geom_bond_atom_site_label_1
_geom_bond_atom_site_label_2
_geom_bond_distance
_geom_bond_site_symmetry_2
_ccdc_geom_bond_type
Ti1     V14    7.961   .     S
Ti1     V7    7.961   1_455     S
Ti1     Ti54    10.865   .     S
Ti1     Ti39    10.865   1_455     S
Ti1     Ti37    10.865   .     S
Ti1     Ti53    10.865   .     S
Ti1     Er70    10.861   1_556     S
Ti1     Ti20    9.483   1_455     S
Ti1     Er33    11.382   .     S
Ti2     V13    7.961   1_565     S
Ti2     V8    7.961   1_455     S
Ti2     Ti53    10.865   1_565     S
Ti2     Ti40    10.865   1_455     S
Ti2     Ti38    10.865   .     S
Ti2     Ti54    10.865   .     S
Ti2     Er69    10.861   1_566     S
Ti2     Ti19    9.483   1_465     S
Ti2     Er34    11.382   .     S
Ti3     V16    7.961   .     S
Ti3     V5    7.961   .     S
Ti3     Ti56    10.865   .     S
Ti3     Ti37    10.865   .     S
Ti3     Ti39    10.865   .     S
Ti3     Ti55    10.865   .     S
Ti3     Er72    10.861   1_556     S
Ti3     Ti18    9.483   .     S
Ti3     Er35    11.382   .     S
Ti4     V15    7.961   1_565     S
Ti4     V6    7.961   .     S
Ti4     Ti55    10.865   1_565     S
Ti4     Ti38    10.865   .     S
Ti4     Ti40    10.865   .     S
Ti4     Ti56    10.865   .     S
Ti4     Er71    10.861   1_566     S
Ti4     Ti17    9.483   1_565     S
Ti4     Er36    11.382   .     S
V5     Ti11    7.961   .     S
V5     Er33    10.364   .     S
V6     Ti12    7.961   .     S
V6     Er34    10.364   .     S
V7     Ti1    7.961   1_655     S
V7     Ti9    7.961   1_655     S
V7     Er35    10.364   .     S
V8     Ti2    7.961   1_655     S
V8     Ti10    7.961   1_655     S
V8     Er36    10.364   .     S
Ti9     V7    7.961   1_455     S
Ti9     V14    7.961   .     S
Ti9     Ti58    10.865   .     S
Ti9     Ti43    10.865   1_455     S
Ti9     Ti57    10.865   .     S
Ti9     Ti41    10.865   .     S
Ti9     Er70    10.861   .     S
Ti9     Ti24    9.483   1_455     S
Ti9     Er33    11.382   .     S
Ti10     V8    7.961   1_455     S
Ti10     V13    7.961   1_565     S
Ti10     Ti57    10.865   1_565     S
Ti10     Ti44    10.865   1_455     S
Ti10     Ti58    10.865   .     S
Ti10     Ti42    10.865   .     S
Ti10     Er69    10.861   1_565     S
Ti10     Ti23    9.483   1_465     S
Ti10     Er34    11.382   .     S
Ti11     V16    7.961   .     S
Ti11     Ti60    10.865   .     S
Ti11     Ti41    10.865   .     S
Ti11     Ti59    10.865   .     S
Ti11     Ti43    10.865   .     S
Ti11     Er72    10.861   .     S
Ti11     Ti22    9.483   .     S
Ti11     Er35    11.382   .     S
Ti12     V15    7.961   1_565     S
Ti12     Ti59    10.865   1_565     S
Ti12     Ti42    10.865   .     S
Ti12     Ti60    10.865   .     S
Ti12     Ti44    10.865   .     S
Ti12     Er71    10.861   1_565     S
Ti12     Ti21    9.483   1_565     S
Ti12     Er36    11.382   .     S
V13     Ti2    7.961   1_545     S
V13     Ti10    7.961   1_545     S
V13     Er33    10.364   .     S
V14     Er34    10.364   .     S
V15     Ti4    7.961   1_545     S
V15     Ti12    7.961   1_545     S
V15     Er35    10.364   .     S
V16     Er36    10.364   .     S
Ti17     V26    7.961   1_545     S
Ti17     V31    7.961   .     S
Ti17     Ti55    10.865   .     S
Ti17     Ti38    10.865   1_545     S
Ti17     Ti53    10.865   .     S
Ti17     Ti37    10.865   .     S
Ti17     Er71    10.861   1_556     S
Ti17     Ti4    9.483   1_545     S
Ti17     Er33    11.382   .     S
Ti18     V25    7.961   .     S
Ti18     V32    7.961   .     S
Ti18     Ti56    10.865   .     S
Ti18     Ti37    10.865   .     S
Ti18     Ti54    10.865   .     S
Ti18     Ti38    10.865   .     S
Ti18     Er72    10.861   1_556     S
Ti18     Er34    11.382   .     S
Ti19     V28    7.961   1_545     S
Ti19     V29    7.961   1_655     S
Ti19     Ti53    10.865   1_655     S
Ti19     Ti40    10.865   1_545     S
Ti19     Ti55    10.865   .     S
Ti19     Ti39    10.865   .     S
Ti19     Er69    10.861   1_656     S
Ti19     Ti2    9.483   1_645     S
Ti19     Er35    11.382   .     S
Ti20     V27    7.961   .     S
Ti20     V30    7.961   1_655     S
Ti20     Ti54    10.865   1_655     S
Ti20     Ti39    10.865   .     S
Ti20     Ti56    10.865   .     S
Ti20     Ti40    10.865   .     S
Ti20     Er70    10.861   1_656     S
Ti20     Ti1    9.483   1_655     S
Ti20     Er36    11.382   .     S
Ti21     V31    7.961   .     S
Ti21     V26    7.961   1_545     S
Ti21     Ti59    10.865   .     S
Ti21     Ti42    10.865   1_545     S
Ti21     Ti41    10.865   .     S
Ti21     Ti57    10.865   .     S
Ti21     Er71    10.861   .     S
Ti21     Ti12    9.483   1_545     S
Ti21     Er33    11.382   .     S
Ti22     V32    7.961   .     S
Ti22     V25    7.961   .     S
Ti22     Ti60    10.865   .     S
Ti22     Ti41    10.865   .     S
Ti22     Ti42    10.865   .     S
Ti22     Ti58    10.865   .     S
Ti22     Er72    10.861   .     S
Ti22     Er34    11.382   .     S
Ti23     V29    7.961   1_655     S
Ti23     V28    7.961   1_545     S
Ti23     Ti57    10.865   1_655     S
Ti23     Ti44    10.865   1_545     S
Ti23     Ti43    10.865   .     S
Ti23     Ti59    10.865   .     S
Ti23     Er69    10.861   1_655     S
Ti23     Ti10    9.483   1_645     S
Ti23     Er35    11.382   .     S
Ti24     V30    7.961   1_655     S
Ti24     V27    7.961   .     S
Ti24     Ti58    10.865   1_655     S
Ti24     Ti43    10.865   .     S
Ti24     Ti44    10.865   .     S
Ti24     Ti60    10.865   .     S
Ti24     Er70    10.861   1_655     S
Ti24     Ti9    9.483   1_655     S
Ti24     Er36    11.382   .     S
V25     Er33    10.364   .     S
V26     Ti17    7.961   1_565     S
V26     Ti21    7.961   1_565     S
V26     Er34    10.364   .     S
V27     Er35    10.364   .     S
V28     Ti19    7.961   1_565     S
V28     Ti23    7.961   1_565     S
V28     Er36    10.364   .     S
V29     Ti19    7.961   1_455     S
V29     Ti23    7.961   1_455     S
V29     Er33    10.364   .     S
V30     Ti20    7.961   1_455     S
V30     Ti24    7.961   1_455     S
V30     Er34    10.364   .     S
V31     Er35    10.364   .     S
V32     Er36    10.364   .     S
Er33     Ti41    10.861   .     S
Er33     Ti57    10.861   .     S
Er33     Ti37    10.861   .     S
Er33     Ti53    10.861   .     S
Er34     Ti42    10.861   .     S
Er34     Ti58    10.861   .     S
Er34     Ti38    10.861   .     S
Er34     Ti54    10.861   .     S
Er35     Ti43    10.861   .     S
Er35     Ti59    10.861   .     S
Er35     Ti39    10.861   .     S
Er35     Ti55    10.861   .     S
Er36     Ti44    10.861   .     S
Er36     Ti60    10.861   .     S
Er36     Ti40    10.861   .     S
Er36     Ti56    10.861   .     S
Ti37     V49    7.961   1_556     S
Ti37     V45    7.961   1_556     S
Ti37     Ti53    9.483   .     S
Ti37     Er72    11.382   1_556     S
Ti38     V50    7.961   1_556     S
Ti38     V46    7.961   1_556     S
Ti38     Ti17    10.865   1_565     S
Ti38     Ti54    9.483   .     S
Ti38     Er71    11.382   1_566     S
Ti39     V51    7.961   1_556     S
Ti39     V47    7.961   1_556     S
Ti39     Ti1    10.865   1_655     S
Ti39     Ti55    9.483   .     S
Ti39     Er70    11.382   1_656     S
Ti40     V52    7.961   1_556     S
Ti40     V48    7.961   1_556     S
Ti40     Ti2    10.865   1_655     S
Ti40     Ti19    10.865   1_565     S
Ti40     Ti56    9.483   .     S
Ti40     Er69    11.382   1_666     S
Ti41     V45    7.961   .     S
Ti41     V49    7.961   .     S
Ti41     Ti57    9.483   .     S
Ti41     Er72    11.382   .     S
Ti42     V46    7.961   .     S
Ti42     V50    7.961   .     S
Ti42     Ti21    10.865   1_565     S
Ti42     Ti58    9.483   .     S
Ti42     Er71    11.382   1_565     S
Ti43     V47    7.961   .     S
Ti43     V51    7.961   .     S
Ti43     Ti9    10.865   1_655     S
Ti43     Ti59    9.483   .     S
Ti43     Er70    11.382   1_655     S
Ti44     V48    7.961   .     S
Ti44     V52    7.961   .     S
Ti44     Ti23    10.865   1_565     S
Ti44     Ti10    10.865   1_655     S
Ti44     Ti60    9.483   .     S
Ti44     Er69    11.382   1_665     S
V45     Ti37    7.961   1_554     S
V45     Er71    10.364   .     S
V46     Ti38    7.961   1_554     S
V46     Er72    10.364   .     S
V47     Ti39    7.961   1_554     S
V47     Er69    10.364   1_655     S
V48     Ti40    7.961   1_554     S
V48     Er70    10.364   1_655     S
V49     Ti37    7.961   1_554     S
V49     Er70    10.364   .     S
V50     Ti38    7.961   1_554     S
V50     Er69    10.364   1_565     S
V51     Ti39    7.961   1_554     S
V51     Er72    10.364   .     S
V52     Ti40    7.961   1_554     S
V52     Er71    10.364   1_565     S
Ti53     V65    7.961   1_556     S
Ti53     V61    7.961   1_556     S
Ti53     Ti19    10.865   1_455     S
Ti53     Ti2    10.865   1_545     S
Ti53     Er69    11.382   1_556     S
Ti54     V66    7.961   1_556     S
Ti54     V62    7.961   1_556     S
Ti54     Ti20    10.865   1_455     S
Ti54     Er70    11.382   1_556     S
Ti55     V67    7.961   1_556     S
Ti55     V63    7.961   1_556     S
Ti55     Ti4    10.865   1_545     S
Ti55     Er71    11.382   1_556     S
Ti56     V68    7.961   1_556     S
Ti56     V64    7.961   1_556     S
Ti56     Er72    11.382   1_556     S
Ti57     V61    7.961   .     S
Ti57     V65    7.961   .     S
Ti57     Ti10    10.865   1_545     S
Ti57     Ti23    10.865   1_455     S
Ti57     Er69    11.382   .     S
Ti58     V62    7.961   .     S
Ti58     V66    7.961   .     S
Ti58     Ti24    10.865   1_455     S
Ti58     Er70    11.382   .     S
Ti59     V63    7.961   .     S
Ti59     V67    7.961   .     S
Ti59     Ti12    10.865   1_545     S
Ti59     Er71    11.382   .     S
Ti60     V64    7.961   .     S
Ti60     V68    7.961   .     S
Ti60     Er72    11.382   .     S
V61     Ti53    7.961   1_554     S
V61     Er70    10.364   .     S
V62     Ti54    7.961   1_554     S
V62     Er69    10.364   1_565     S
V63     Ti55    7.961   1_554     S
V63     Er72    10.364   .     S
V64     Ti56    7.961   1_554     S
V64     Er71    10.364   1_565     S
V65     Ti53    7.961   1_554     S
V65     Er71    10.364   .     S
V66     Ti54    7.961   1_554     S
V66     Er72    10.364   .     S
V67     Ti55    7.961   1_554     S
V67     Er69    10.364   1_655     S
V68     Ti56    7.961   1_554     S
V68     Er70    10.364   1_655     S
Er69     Ti19    10.861   1_454     S
Er69     Ti2    10.861   1_544     S
Er69     Ti10    10.861   1_545     S
Er69     Ti23    10.861   1_455     S
Er69     V47    10.364   1_455     S
Er69     V67    10.364   1_455     S
Er69     V62    10.364   1_545     S
Er69     V50    10.364   1_545     S
Er69     Ti53    11.382   1_554     S
Er69     Ti40    11.382   1_444     S
Er69     Ti44    11.382   1_445     S
Er70     Ti20    10.861   1_454     S
Er70     Ti1    10.861   1_554     S
Er70     Ti24    10.861   1_455     S
Er70     V48    10.364   1_455     S
Er70     V68    10.364   1_455     S
Er70     Ti54    11.382   1_554     S
Er70     Ti39    11.382   1_454     S
Er70     Ti43    11.382   1_455     S
Er71     Ti17    10.861   1_554     S
Er71     Ti4    10.861   1_544     S
Er71     Ti12    10.861   1_545     S
Er71     V64    10.364   1_545     S
Er71     V52    10.364   1_545     S
Er71     Ti55    11.382   1_554     S
Er71     Ti38    11.382   1_544     S
Er71     Ti42    11.382   1_545     S
Er72     Ti18    10.861   1_554     S
Er72     Ti3    10.861   1_554     S
Er72     Ti56    11.382   1_554     S
Er72     Ti37    11.382   1_554     S
