data_lom
_audit_creation_date              2019-12-31
_audit_creation_method            'Pymatgen'
_symmetry_space_group_name_H-M    'P1'
_symmetry_Int_Tables_number       1
loop_
_symmetry_equiv_pos_as_xyz
  x,y,z
_cell_length_a                    32.3974
_cell_length_b                    32.3972
_cell_length_c                    23.4607
_cell_angle_alpha                 90.0
_cell_angle_beta                 90.0
_cell_angle_gamma                 90.0
loop_
_atom_site_label
_atom_site_type_symbol
_atom_site_fract_x
_atom_site_fract_y
_atom_site_fract_z
V1     V     0.0   0.375   0.625
V2     V     0.0   0.875   0.625
V3     V     0.5   0.375   0.625
V4     V     0.5   0.875   0.625
V5     V     0.0   0.125   0.875
V6     V     0.0   0.625   0.875
V7     V     0.5   0.125   0.875
V8     V     0.5   0.625   0.875
V9     V     0.25   0.375   0.875
V10     V     0.25   0.875   0.875
V11     V     0.75   0.375   0.875
V12     V     0.75   0.875   0.875
V13     V     0.25   0.125   0.625
V14     V     0.25   0.625   0.625
V15     V     0.75   0.125   0.625
V16     V     0.75   0.625   0.625
V17     V     0.25   0.125   0.125
V18     V     0.25   0.625   0.125
V19     V     0.75   0.125   0.125
V20     V     0.75   0.625   0.125
V21     V     0.25   0.375   0.375
V22     V     0.25   0.875   0.375
V23     V     0.75   0.375   0.375
V24     V     0.75   0.875   0.375
V25     V     0.0   0.125   0.375
V26     V     0.0   0.625   0.375
V27     V     0.5   0.125   0.375
V28     V     0.5   0.625   0.375
V29     V     0.0   0.375   0.125
V30     V     0.0   0.875   0.125
V31     V     0.5   0.375   0.125
V32     V     0.5   0.875   0.125
loop_
_geom_bond_atom_site_label_1
_geom_bond_atom_site_label_2
_geom_bond_distance
_geom_bond_site_symmetry_2
_ccdc_geom_bond_type
V1     V5    10.0   .     S
V1     V6    10.0   .     S
V1     V11    10.0   1_455     S
V1     V9    10.0   .     S
V1     V23    10.0   1_455     S
V1     V21    10.0   .     S
V1     V26    10.0   .     S
V2     V6    10.0   .     S
V2     V5    10.0   1_565     S
V2     V12    10.0   1_455     S
V2     V10    10.0   .     S
V2     V24    10.0   1_455     S
V2     V22    10.0   .     S
V2     V25    10.0   1_565     S
V3     V7    10.0   .     S
V3     V8    10.0   .     S
V3     V9    10.0   .     S
V3     V11    10.0   .     S
V3     V21    10.0   .     S
V3     V23    10.0   .     S
V3     V28    10.0   .     S
V4     V8    10.0   .     S
V4     V7    10.0   1_565     S
V4     V10    10.0   .     S
V4     V12    10.0   .     S
V4     V22    10.0   .     S
V4     V24    10.0   .     S
V4     V27    10.0   1_565     S
V5     V2    10.0   1_545     S
V5     V15    10.0   1_455     S
V5     V13    10.0   .     S
V5     V19    10.0   1_456     S
V5     V17    10.0   1_556     S
V5     V29    10.0   1_556     S
V6     V16    10.0   1_455     S
V6     V14    10.0   .     S
V6     V20    10.0   1_456     S
V6     V18    10.0   1_556     S
V6     V30    10.0   1_556     S
V7     V4    10.0   1_545     S
V7     V13    10.0   .     S
V7     V15    10.0   .     S
V7     V17    10.0   1_556     S
V7     V19    10.0   1_556     S
V7     V31    10.0   1_556     S
V8     V14    10.0   .     S
V8     V16    10.0   .     S
V8     V18    10.0   1_556     S
V8     V20    10.0   1_556     S
V8     V32    10.0   1_556     S
V9     V13    10.0   .     S
V9     V14    10.0   .     S
V9     V31    10.0   1_556     S
V9     V29    10.0   1_556     S
V9     V18    10.0   1_556     S
V10     V14    10.0   .     S
V10     V13    10.0   1_565     S
V10     V32    10.0   1_556     S
V10     V30    10.0   1_556     S
V10     V17    10.0   1_566     S
V11     V15    10.0   .     S
V11     V16    10.0   .     S
V11     V1    10.0   1_655     S
V11     V29    10.0   1_656     S
V11     V31    10.0   1_556     S
V11     V20    10.0   1_556     S
V12     V16    10.0   .     S
V12     V15    10.0   1_565     S
V12     V2    10.0   1_655     S
V12     V30    10.0   1_656     S
V12     V32    10.0   1_556     S
V12     V19    10.0   1_566     S
V13     V10    10.0   1_545     S
V13     V27    10.0   .     S
V13     V25    10.0   .     S
V13     V21    10.0   .     S
V14     V28    10.0   .     S
V14     V26    10.0   .     S
V14     V22    10.0   .     S
V15     V12    10.0   1_545     S
V15     V5    10.0   1_655     S
V15     V25    10.0   1_655     S
V15     V27    10.0   .     S
V15     V23    10.0   .     S
V16     V6    10.0   1_655     S
V16     V26    10.0   1_655     S
V16     V28    10.0   .     S
V16     V24    10.0   .     S
V17     V21    10.0   .     S
V17     V22    10.0   1_545     S
V17     V27    10.0   .     S
V17     V25    10.0   .     S
V17     V7    10.0   1_554     S
V17     V5    10.0   1_554     S
V17     V10    10.0   1_544     S
V18     V22    10.0   .     S
V18     V21    10.0   .     S
V18     V28    10.0   .     S
V18     V26    10.0   .     S
V18     V8    10.0   1_554     S
V18     V6    10.0   1_554     S
V18     V9    10.0   1_554     S
V19     V23    10.0   .     S
V19     V24    10.0   1_545     S
V19     V25    10.0   1_655     S
V19     V27    10.0   .     S
V19     V5    10.0   1_654     S
V19     V7    10.0   1_554     S
V19     V12    10.0   1_544     S
V20     V24    10.0   .     S
V20     V23    10.0   .     S
V20     V26    10.0   1_655     S
V20     V28    10.0   .     S
V20     V6    10.0   1_654     S
V20     V8    10.0   1_554     S
V20     V11    10.0   1_554     S
V21     V31    10.0   .     S
V21     V29    10.0   .     S
V22     V17    10.0   1_565     S
V22     V32    10.0   .     S
V22     V30    10.0   .     S
V23     V29    10.0   1_655     S
V23     V31    10.0   .     S
V23     V1    10.0   1_655     S
V24     V19    10.0   1_565     S
V24     V30    10.0   1_655     S
V24     V32    10.0   .     S
V24     V2    10.0   1_655     S
V25     V15    10.0   1_455     S
V25     V19    10.0   1_455     S
V25     V29    10.0   .     S
V25     V30    10.0   1_545     S
V25     V2    10.0   1_545     S
V26     V16    10.0   1_455     S
V26     V20    10.0   1_455     S
V26     V30    10.0   .     S
V26     V29    10.0   .     S
V27     V31    10.0   .     S
V27     V32    10.0   1_545     S
V27     V4    10.0   1_545     S
V28     V32    10.0   .     S
V28     V31    10.0   .     S
V29     V11    10.0   1_454     S
V29     V23    10.0   1_455     S
V29     V9    10.0   1_554     S
V29     V5    10.0   1_554     S
V30     V12    10.0   1_454     S
V30     V24    10.0   1_455     S
V30     V25    10.0   1_565     S
V30     V10    10.0   1_554     S
V30     V6    10.0   1_554     S
V31     V9    10.0   1_554     S
V31     V11    10.0   1_554     S
V31     V7    10.0   1_554     S
V32     V10    10.0   1_554     S
V32     V27    10.0   1_565     S
V32     V12    10.0   1_554     S
V32     V8    10.0   1_554     S
