data_lon-e
_audit_creation_date              2019-12-31
_audit_creation_method            'Pymatgen'
_symmetry_space_group_name_H-M    'P1'
_symmetry_Int_Tables_number       1
loop_
_symmetry_equiv_pos_as_xyz
  x,y,z
_cell_length_a                    40.0
_cell_length_b                    40.0
_cell_length_c                    32.66
_cell_angle_alpha                 90.0
_cell_angle_beta                 90.0
_cell_angle_gamma                 120.0
loop_
_atom_site_label
_atom_site_type_symbol
_atom_site_fract_x
_atom_site_fract_y
_atom_site_fract_z
V1     V     0.1667   0.3333   0.75
V2     V     0.1667   0.8333   0.75
V3     V     0.6667   0.3333   0.75
V4     V     0.6667   0.8333   0.75
Er5     Er     0.25   0.25   0.0
Er6     Er     0.25   0.75   0.0
Er7     Er     0.75   0.25   0.0
Er8     Er     0.75   0.75   0.0
Er9     Er     0.25   0.25   0.5
Er10     Er     0.25   0.75   0.5
Er11     Er     0.75   0.25   0.5
Er12     Er     0.75   0.75   0.5
V13     V     0.3333   0.1667   0.25
V14     V     0.3333   0.6667   0.25
V15     V     0.8333   0.1667   0.25
V16     V     0.8333   0.6667   0.25
Er17     Er     0.0   0.25   0.0
Er18     Er     1.0   0.75   0.0
Er19     Er     0.5   0.25   0.0
Er20     Er     0.5   0.75   0.0
Er21     Er     0.25   0.0   0.5
Er22     Er     0.25   0.5   0.5
Er23     Er     0.75   0.0   0.5
Er24     Er     0.75   0.5   0.5
Er25     Er     0.0   0.25   0.5
Er26     Er     1.0   0.75   0.5
Er27     Er     0.5   0.25   0.5
Er28     Er     0.5   0.75   0.5
Er29     Er     0.25   0.0   0.0
Er30     Er     0.25   0.5   0.0
Er31     Er     0.75   0.0   0.0
Er32     Er     0.75   0.5   0.0
loop_
_geom_bond_atom_site_label_1
_geom_bond_atom_site_label_2
_geom_bond_distance
_geom_bond_site_symmetry_2
_ccdc_geom_bond_type
V1     Er9    10.0   .     S
V1     Er22    10.0   .     S
V1     Er25    10.0   .     S
V1     Er30    10.0   1_556     S
V1     Er5    10.0   1_556     S
V1     Er17    10.0   1_556     S
V2     Er10    10.0   .     S
V2     Er21    10.0   1_565     S
V2     Er26    10.0   1_455     S
V2     Er29    10.0   1_566     S
V2     Er6    10.0   1_556     S
V2     Er18    10.0   1_456     S
V3     Er11    10.0   .     S
V3     Er24    10.0   .     S
V3     Er27    10.0   .     S
V3     Er32    10.0   1_556     S
V3     Er7    10.0   1_556     S
V3     Er19    10.0   1_556     S
V4     Er12    10.0   .     S
V4     Er23    10.0   1_565     S
V4     Er28    10.0   .     S
V4     Er31    10.0   1_566     S
V4     Er8    10.0   1_556     S
V4     Er20    10.0   1_556     S
Er5     V1    10.0   1_554     S
Er5     Er30    10.0   .     S
Er5     Er17    10.0   .     S
Er5     V13    10.0   .     S
Er5     Er19    10.0   .     S
Er5     Er29    10.0   .     S
Er6     V2    10.0   1_554     S
Er6     Er29    10.0   1_565     S
Er6     Er18    10.0   1_455     S
Er6     V14    10.0   .     S
Er6     Er20    10.0   .     S
Er6     Er30    10.0   .     S
Er7     V3    10.0   1_554     S
Er7     Er32    10.0   .     S
Er7     Er19    10.0   .     S
Er7     V15    10.0   .     S
Er7     Er17    10.0   1_655     S
Er7     Er31    10.0   .     S
Er8     V4    10.0   1_554     S
Er8     Er31    10.0   1_565     S
Er8     Er20    10.0   .     S
Er8     V16    10.0   .     S
Er8     Er18    10.0   .     S
Er8     Er32    10.0   .     S
Er9     Er22    10.0   .     S
Er9     Er25    10.0   .     S
Er9     V13    10.0   .     S
Er9     Er27    10.0   .     S
Er9     Er21    10.0   .     S
Er10     Er21    10.0   1_565     S
Er10     Er26    10.0   1_455     S
Er10     V14    10.0   .     S
Er10     Er28    10.0   .     S
Er10     Er22    10.0   .     S
Er11     Er24    10.0   .     S
Er11     Er27    10.0   .     S
Er11     V15    10.0   .     S
Er11     Er25    10.0   1_655     S
Er11     Er23    10.0   .     S
Er12     Er23    10.0   1_565     S
Er12     Er28    10.0   .     S
Er12     V16    10.0   .     S
Er12     Er26    10.0   .     S
Er12     Er24    10.0   .     S
V13     Er19    10.0   .     S
V13     Er29    10.0   .     S
V13     Er27    10.0   .     S
V13     Er21    10.0   .     S
V14     Er20    10.0   .     S
V14     Er30    10.0   .     S
V14     Er28    10.0   .     S
V14     Er22    10.0   .     S
V15     Er17    10.0   1_655     S
V15     Er31    10.0   .     S
V15     Er25    10.0   1_655     S
V15     Er23    10.0   .     S
V16     Er18    10.0   .     S
V16     Er32    10.0   .     S
V16     Er26    10.0   .     S
V16     Er24    10.0   .     S
Er17     V1    10.0   1_554     S
Er17     Er30    10.0   .     S
Er17     V15    10.0   1_455     S
Er17     Er7    10.0   1_455     S
Er17     Er31    10.0   1_455     S
Er18     V2    10.0   1_654     S
Er18     Er6    10.0   1_655     S
Er18     Er29    10.0   1_665     S
Er18     Er32    10.0   .     S
Er19     V3    10.0   1_554     S
Er19     Er32    10.0   .     S
Er19     Er29    10.0   .     S
Er20     V4    10.0   1_554     S
Er20     Er31    10.0   1_565     S
Er20     Er30    10.0   .     S
Er21     V2    10.0   1_545     S
Er21     Er10    10.0   1_545     S
Er21     Er26    10.0   1_445     S
Er21     Er27    10.0   .     S
Er22     Er25    10.0   .     S
Er22     Er28    10.0   .     S
Er23     V4    10.0   1_545     S
Er23     Er12    10.0   1_545     S
Er23     Er28    10.0   1_545     S
Er23     Er25    10.0   1_655     S
Er24     Er27    10.0   .     S
Er24     Er26    10.0   .     S
Er25     V15    10.0   1_455     S
Er25     Er11    10.0   1_455     S
Er25     Er23    10.0   1_455     S
Er26     V2    10.0   1_655     S
Er26     Er21    10.0   1_665     S
Er26     Er10    10.0   1_655     S
Er28     Er23    10.0   1_565     S
Er29     V2    10.0   1_544     S
Er29     Er6    10.0   1_545     S
Er29     Er18    10.0   1_445     S
Er30     V1    10.0   1_554     S
Er31     V4    10.0   1_544     S
Er31     Er8    10.0   1_545     S
Er31     Er20    10.0   1_545     S
Er31     Er17    10.0   1_655     S
Er32     V3    10.0   1_554     S
