data_lrj
_audit_creation_date              2019-12-31
_audit_creation_method            'Pymatgen'
_symmetry_space_group_name_H-M    'P1'
_symmetry_Int_Tables_number       1
loop_
_symmetry_equiv_pos_as_xyz
  x,y,z
_cell_length_a                    33.539
_cell_length_b                    52.6993
_cell_length_c                    61.7107
_cell_angle_alpha                 90.0
_cell_angle_beta                 90.0
_cell_angle_gamma                 90.0
loop_
_atom_site_label
_atom_site_type_symbol
_atom_site_fract_x
_atom_site_fract_y
_atom_site_fract_z
Er1     Er     0.25   0.1983   0.669
Er2     Er     0.75   0.1983   0.669
Er3     Er     0.25   0.1983   0.831
Er4     Er     0.75   0.1983   0.831
Er5     Er     0.0   0.3017   0.669
Er6     Er     0.5   0.3017   0.669
Er7     Er     0.0   0.3017   0.831
Er8     Er     0.5   0.3017   0.831
V9     V     0.0917   0.9252   0.419
V10     V     0.5917   0.9252   0.419
V11     V     0.0917   0.9252   0.581
V12     V     0.5917   0.9252   0.581
V13     V     0.4083   0.0748   0.419
V14     V     0.9083   0.0748   0.419
V15     V     0.4083   0.0748   0.581
V16     V     0.9083   0.0748   0.581
Er17     Er     0.0   0.6983   0.669
Er18     Er     0.5   0.6983   0.669
Er19     Er     0.0   0.6983   0.831
Er20     Er     0.5   0.6983   0.831
Er21     Er     0.25   0.8017   0.669
Er22     Er     0.75   0.8017   0.669
Er23     Er     0.25   0.8017   0.831
Er24     Er     0.75   0.8017   0.831
V25     V     0.4083   0.9252   0.919
V26     V     0.9083   0.9252   0.919
V27     V     0.4083   0.9252   0.081
V28     V     0.9083   0.9252   0.081
V29     V     0.0917   0.0748   0.919
V30     V     0.5917   0.0748   0.919
V31     V     0.0917   0.0748   0.081
V32     V     0.5917   0.0748   0.081
Er33     Er     0.0   0.3017   0.331
Er34     Er     0.5   0.3017   0.331
Er35     Er     0.0   0.3017   0.169
Er36     Er     0.5   0.3017   0.169
Er37     Er     0.25   0.1983   0.331
Er38     Er     0.75   0.1983   0.331
Er39     Er     0.25   0.1983   0.169
Er40     Er     0.75   0.1983   0.169
V41     V     0.3417   0.4252   0.419
V42     V     0.8417   0.4252   0.419
V43     V     0.3417   0.4252   0.581
V44     V     0.8417   0.4252   0.581
V45     V     0.1583   0.5748   0.419
V46     V     0.6583   0.5748   0.419
V47     V     0.1583   0.5748   0.581
V48     V     0.6583   0.5748   0.581
Er49     Er     0.0   0.6983   0.331
Er50     Er     0.5   0.6983   0.331
Er51     Er     0.0   0.6983   0.169
Er52     Er     0.5   0.6983   0.169
Er53     Er     0.25   0.8017   0.331
Er54     Er     0.75   0.8017   0.331
Er55     Er     0.25   0.8017   0.169
Er56     Er     0.75   0.8017   0.169
V57     V     0.3417   0.5748   0.919
V58     V     0.8417   0.5748   0.919
V59     V     0.3417   0.5748   0.081
V60     V     0.8417   0.5748   0.081
V61     V     0.1583   0.4252   0.919
V62     V     0.6583   0.4252   0.919
V63     V     0.1583   0.4252   0.081
V64     V     0.6583   0.4252   0.081
loop_
_geom_bond_atom_site_label_1
_geom_bond_atom_site_label_2
_geom_bond_distance
_geom_bond_site_symmetry_2
_ccdc_geom_bond_type
Er1     Er3    10.0   .     S
Er1     Er6    10.0   .     S
Er1     Er5    10.0   .     S
Er1     V15    10.0   .     S
Er2     Er4    10.0   .     S
Er2     Er5    10.0   1_655     S
Er2     Er6    10.0   .     S
Er2     V16    10.0   .     S
Er3     Er7    10.0   .     S
Er3     Er8    10.0   .     S
Er3     V29    10.0   .     S
Er4     Er8    10.0   .     S
Er4     Er7    10.0   1_655     S
Er4     V30    10.0   .     S
Er5     Er7    10.0   .     S
Er5     Er2    10.0   1_455     S
Er5     V44    10.0   1_455     S
Er6     Er8    10.0   .     S
Er6     V43    10.0   .     S
Er7     Er4    10.0   1_455     S
Er7     V61    10.0   .     S
Er8     V62    10.0   .     S
V9     V11    10.0   .     S
V9     V14    10.0   1_465     S
V9     Er53    10.0   .     S
V10     V12    10.0   .     S
V10     V13    10.0   1_565     S
V10     Er54    10.0   .     S
V11     V16    10.0   1_465     S
V11     Er21    10.0   .     S
V12     V15    10.0   1_565     S
V12     Er22    10.0   .     S
V13     V15    10.0   .     S
V13     V10    10.0   1_545     S
V13     Er37    10.0   .     S
V14     V16    10.0   .     S
V14     V9    10.0   1_645     S
V14     Er38    10.0   .     S
V15     V12    10.0   1_545     S
V16     V11    10.0   1_645     S
Er17     Er19    10.0   .     S
Er17     Er21    10.0   .     S
Er17     Er22    10.0   1_455     S
Er17     V47    10.0   .     S
Er18     Er20    10.0   .     S
Er18     Er22    10.0   .     S
Er18     Er21    10.0   .     S
Er18     V48    10.0   .     S
Er19     Er24    10.0   1_455     S
Er19     Er23    10.0   .     S
Er19     V58    10.0   1_455     S
Er20     Er23    10.0   .     S
Er20     Er24    10.0   .     S
Er20     V57    10.0   .     S
Er21     Er23    10.0   .     S
Er22     Er24    10.0   .     S
Er22     Er17    10.0   1_655     S
Er23     V25    10.0   .     S
Er24     Er19    10.0   1_655     S
Er24     V26    10.0   .     S
V25     V27    10.0   1_556     S
V25     V30    10.0   1_565     S
V26     V28    10.0   1_556     S
V26     V29    10.0   1_665     S
V27     V25    10.0   1_554     S
V27     V32    10.0   1_565     S
V27     Er55    10.0   .     S
V28     V26    10.0   1_554     S
V28     V31    10.0   1_665     S
V28     Er56    10.0   .     S
V29     V31    10.0   1_556     S
V29     V26    10.0   1_445     S
V30     V32    10.0   1_556     S
V30     V25    10.0   1_545     S
V31     V29    10.0   1_554     S
V31     V28    10.0   1_445     S
V31     Er39    10.0   .     S
V32     V30    10.0   1_554     S
V32     V27    10.0   1_545     S
V32     Er40    10.0   .     S
Er33     Er35    10.0   .     S
Er33     Er38    10.0   1_455     S
Er33     Er37    10.0   .     S
Er33     V42    10.0   1_455     S
Er34     Er36    10.0   .     S
Er34     Er37    10.0   .     S
Er34     Er38    10.0   .     S
Er34     V41    10.0   .     S
Er35     Er39    10.0   .     S
Er35     Er40    10.0   1_455     S
Er35     V63    10.0   .     S
Er36     Er40    10.0   .     S
Er36     Er39    10.0   .     S
Er36     V64    10.0   .     S
Er37     Er39    10.0   .     S
Er38     Er40    10.0   .     S
Er38     Er33    10.0   1_655     S
Er40     Er35    10.0   1_655     S
V41     V43    10.0   .     S
V41     V45    10.0   .     S
V42     V44    10.0   .     S
V42     V46    10.0   .     S
V42     Er33    10.0   1_655     S
V43     V47    10.0   .     S
V44     V48    10.0   .     S
V44     Er5    10.0   1_655     S
V45     V47    10.0   .     S
V45     Er49    10.0   .     S
V46     V48    10.0   .     S
V46     Er50    10.0   .     S
Er49     Er51    10.0   .     S
Er49     Er53    10.0   .     S
Er49     Er54    10.0   1_455     S
Er50     Er52    10.0   .     S
Er50     Er54    10.0   .     S
Er50     Er53    10.0   .     S
Er51     Er56    10.0   1_455     S
Er51     Er55    10.0   .     S
Er51     V60    10.0   1_455     S
Er52     Er55    10.0   .     S
Er52     Er56    10.0   .     S
Er52     V59    10.0   .     S
Er53     Er55    10.0   .     S
Er54     Er56    10.0   .     S
Er54     Er49    10.0   1_655     S
Er56     Er51    10.0   1_655     S
V57     V59    10.0   1_556     S
V57     V61    10.0   .     S
V58     V60    10.0   1_556     S
V58     V62    10.0   .     S
V58     Er19    10.0   1_655     S
V59     V57    10.0   1_554     S
V59     V63    10.0   .     S
V60     V58    10.0   1_554     S
V60     V64    10.0   .     S
V60     Er51    10.0   1_655     S
V61     V63    10.0   1_556     S
V62     V64    10.0   1_556     S
V63     V61    10.0   1_554     S
V64     V62    10.0   1_554     S
