data_lrk
_audit_creation_date              2019-12-31
_audit_creation_method            'Pymatgen'
_symmetry_space_group_name_H-M    'P1'
_symmetry_Int_Tables_number       1
loop_
_symmetry_equiv_pos_as_xyz
  x,y,z
_cell_length_a                    38.1766
_cell_length_b                    79.5942
_cell_length_c                    68.2754
_cell_angle_alpha                 90.0
_cell_angle_beta                 90.0
_cell_angle_gamma                 90.0
loop_
_atom_site_label
_atom_site_type_symbol
_atom_site_fract_x
_atom_site_fract_y
_atom_site_fract_z
V1     V     0.4398   0.5558   0.0
V2     V     0.9398   0.5558   0.0
V3     V     0.0602   0.4442   0.0
V4     V     0.5602   0.4442   0.0
V5     V     0.1898   0.0558   0.0
V6     V     0.6898   0.0558   0.0
V7     V     0.3102   0.9442   0.0
V8     V     0.8102   0.9442   0.0
Er9     Er     0.086   0.1525   0.9268
Er10     Er     0.586   0.1525   0.9268
Er11     Er     0.086   0.1525   0.0732
Er12     Er     0.586   0.1525   0.0732
Er13     Er     0.414   0.1525   0.5732
Er14     Er     0.914   0.1525   0.5732
Er15     Er     0.414   0.1525   0.4268
Er16     Er     0.914   0.1525   0.4268
Er17     Er     0.164   0.3475   0.9268
Er18     Er     0.664   0.3475   0.9268
Er19     Er     0.164   0.3475   0.0732
Er20     Er     0.664   0.3475   0.0732
Ti21     Ti     0.0   0.2312   0.8232
Ti22     Ti     0.5   0.2312   0.8232
Ti23     Ti     0.0   0.2312   0.6768
Ti24     Ti     0.5   0.2312   0.6768
Ti25     Ti     0.25   0.2688   0.8232
Ti26     Ti     0.75   0.2688   0.8232
Ti27     Ti     0.25   0.2688   0.6768
Ti28     Ti     0.75   0.2688   0.6768
Ti29     Ti     0.0   0.2312   0.1768
Ti30     Ti     0.5   0.2312   0.1768
Ti31     Ti     0.0   0.2312   0.3232
Ti32     Ti     0.5   0.2312   0.3232
Ti33     Ti     0.25   0.2688   0.1768
Ti34     Ti     0.75   0.2688   0.1768
Ti35     Ti     0.25   0.2688   0.3232
Ti36     Ti     0.75   0.2688   0.3232
Er37     Er     0.336   0.3475   0.5732
Er38     Er     0.836   0.3475   0.5732
Er39     Er     0.336   0.3475   0.4268
Er40     Er     0.836   0.3475   0.4268
V41     V     0.4398   0.4442   0.5
V42     V     0.9398   0.4442   0.5
V43     V     0.0602   0.5558   0.5
V44     V     0.5602   0.5558   0.5
V45     V     0.1898   0.9442   0.5
V46     V     0.6898   0.9442   0.5
V47     V     0.3102   0.0558   0.5
V48     V     0.8102   0.0558   0.5
Er49     Er     0.086   0.8475   0.5732
Er50     Er     0.586   0.8475   0.5732
Er51     Er     0.086   0.8475   0.4268
Er52     Er     0.586   0.8475   0.4268
Er53     Er     0.414   0.8475   0.9268
Er54     Er     0.914   0.8475   0.9268
Er55     Er     0.414   0.8475   0.0732
Er56     Er     0.914   0.8475   0.0732
Ti57     Ti     0.0   0.7688   0.1768
Ti58     Ti     0.5   0.7688   0.1768
Ti59     Ti     0.0   0.7688   0.3232
Ti60     Ti     0.5   0.7688   0.3232
Ti61     Ti     0.25   0.7312   0.1768
Ti62     Ti     0.75   0.7312   0.1768
Ti63     Ti     0.25   0.7312   0.3232
Ti64     Ti     0.75   0.7312   0.3232
Er65     Er     0.164   0.6525   0.4268
Er66     Er     0.664   0.6525   0.4268
Er67     Er     0.164   0.6525   0.5732
Er68     Er     0.664   0.6525   0.5732
Ti69     Ti     0.25   0.7312   0.8232
Ti70     Ti     0.75   0.7312   0.8232
Ti71     Ti     0.25   0.7312   0.6768
Ti72     Ti     0.75   0.7312   0.6768
Ti73     Ti     0.0   0.7688   0.8232
Ti74     Ti     0.5   0.7688   0.8232
Ti75     Ti     0.0   0.7688   0.6768
Ti76     Ti     0.5   0.7688   0.6768
Er77     Er     0.336   0.6525   0.9268
Er78     Er     0.836   0.6525   0.9268
Er79     Er     0.336   0.6525   0.0732
Er80     Er     0.836   0.6525   0.0732
loop_
_geom_bond_atom_site_label_1
_geom_bond_atom_site_label_2
_geom_bond_distance
_geom_bond_site_symmetry_2
_ccdc_geom_bond_type
V1     V4    10.0   .     S
V1     Er77    10.0   1_554     S
V1     Er79    10.0   .     S
V2     V3    10.0   1_655     S
V2     Er78    10.0   1_554     S
V2     Er80    10.0   .     S
V3     V2    10.0   1_455     S
V3     Er17    10.0   1_554     S
V3     Er19    10.0   .     S
V4     Er18    10.0   1_554     S
V4     Er20    10.0   .     S
V5     V7    10.0   1_545     S
V5     Er9    10.0   1_554     S
V5     Er11    10.0   .     S
V6     V8    10.0   1_545     S
V6     Er10    10.0   1_554     S
V6     Er12    10.0   .     S
V7     V5    10.0   1_565     S
V7     Er53    10.0   1_554     S
V7     Er55    10.0   .     S
V8     V6    10.0   1_565     S
V8     Er54    10.0   1_554     S
V8     Er56    10.0   .     S
Er9     V5    10.0   1_556     S
Er9     Er11    10.0   1_556     S
Er9     Ti21    10.001   .     S
Er10     V6    10.0   1_556     S
Er10     Er12    10.0   1_556     S
Er10     Ti22    10.001   .     S
Er11     Er9    10.0   1_554     S
Er11     Ti29    10.001   .     S
Er12     Er10    10.0   1_554     S
Er12     Ti30    10.001   .     S
Er13     V47    10.0   .     S
Er13     Er15    10.0   .     S
Er13     Ti24    10.001   .     S
Er14     V48    10.0   .     S
Er14     Er16    10.0   .     S
Er14     Ti23    10.001   1_655     S
Er15     V47    10.0   .     S
Er15     Ti32    10.001   .     S
Er16     V48    10.0   .     S
Er16     Ti31    10.001   1_655     S
Er17     V3    10.0   1_556     S
Er17     Er19    10.0   1_556     S
Er17     Ti25    10.001   .     S
Er18     V4    10.0   1_556     S
Er18     Er20    10.0   1_556     S
Er18     Ti26    10.001   .     S
Er19     Er17    10.0   1_554     S
Er19     Ti33    10.001   .     S
Er20     Er18    10.0   1_554     S
Er20     Ti34    10.001   .     S
Ti21     Ti23    10.0   .     S
Ti21     Ti26    10.0   1_455     S
Ti21     Ti25    10.0   .     S
Ti22     Ti24    10.0   .     S
Ti22     Ti25    10.0   .     S
Ti22     Ti26    10.0   .     S
Ti23     Er14    10.001   1_455     S
Ti23     Ti28    10.0   1_455     S
Ti23     Ti27    10.0   .     S
Ti24     Ti27    10.0   .     S
Ti24     Ti28    10.0   .     S
Ti25     Ti27    10.0   .     S
Ti26     Ti28    10.0   .     S
Ti26     Ti21    10.0   1_655     S
Ti27     Er37    10.001   .     S
Ti28     Ti23    10.0   1_655     S
Ti28     Er38    10.001   .     S
Ti29     Ti31    10.0   .     S
Ti29     Ti34    10.0   1_455     S
Ti29     Ti33    10.0   .     S
Ti30     Ti32    10.0   .     S
Ti30     Ti33    10.0   .     S
Ti30     Ti34    10.0   .     S
Ti31     Er16    10.001   1_455     S
Ti31     Ti36    10.0   1_455     S
Ti31     Ti35    10.0   .     S
Ti32     Ti35    10.0   .     S
Ti32     Ti36    10.0   .     S
Ti33     Ti35    10.0   .     S
Ti34     Ti36    10.0   .     S
Ti34     Ti29    10.0   1_655     S
Ti35     Er39    10.001   .     S
Ti36     Ti31    10.0   1_655     S
Ti36     Er40    10.001   .     S
Er37     V41    10.0   .     S
Er37     Er39    10.0   .     S
Er38     V42    10.0   .     S
Er38     Er40    10.0   .     S
Er39     V41    10.0   .     S
Er40     V42    10.0   .     S
V41     V44    10.0   .     S
V42     V43    10.0   1_655     S
V43     V42    10.0   1_455     S
V43     Er65    10.0   .     S
V43     Er67    10.0   .     S
V44     Er66    10.0   .     S
V44     Er68    10.0   .     S
V45     V47    10.0   1_565     S
V45     Er49    10.0   .     S
V45     Er51    10.0   .     S
V46     V48    10.0   1_565     S
V46     Er50    10.0   .     S
V46     Er52    10.0   .     S
V47     V45    10.0   1_545     S
V48     V46    10.0   1_545     S
Er49     Er51    10.0   .     S
Er49     Ti75    10.001   .     S
Er50     Er52    10.0   .     S
Er50     Ti76    10.001   .     S
Er51     Ti59    10.001   .     S
Er52     Ti60    10.001   .     S
Er53     V7    10.0   1_556     S
Er53     Er55    10.0   1_556     S
Er53     Ti74    10.001   .     S
Er54     V8    10.0   1_556     S
Er54     Er56    10.0   1_556     S
Er54     Ti73    10.001   1_655     S
Er55     Er53    10.0   1_554     S
Er55     Ti58    10.001   .     S
Er56     Er54    10.0   1_554     S
Er56     Ti57    10.001   1_655     S
Ti57     Er56    10.001   1_455     S
Ti57     Ti59    10.0   .     S
Ti57     Ti62    10.0   1_455     S
Ti57     Ti61    10.0   .     S
Ti58     Ti60    10.0   .     S
Ti58     Ti61    10.0   .     S
Ti58     Ti62    10.0   .     S
Ti59     Ti64    10.0   1_455     S
Ti59     Ti63    10.0   .     S
Ti60     Ti63    10.0   .     S
Ti60     Ti64    10.0   .     S
Ti61     Ti63    10.0   .     S
Ti61     Er79    10.001   .     S
Ti62     Ti64    10.0   .     S
Ti62     Ti57    10.0   1_655     S
Ti62     Er80    10.001   .     S
Ti63     Er65    10.001   .     S
Ti64     Ti59    10.0   1_655     S
Ti64     Er66    10.001   .     S
Er65     Er67    10.0   .     S
Er66     Er68    10.0   .     S
Er67     Ti71    10.001   .     S
Er68     Ti72    10.001   .     S
Ti69     Ti71    10.0   .     S
Ti69     Ti74    10.0   .     S
Ti69     Ti73    10.0   .     S
Ti69     Er77    10.001   .     S
Ti70     Ti72    10.0   .     S
Ti70     Ti73    10.0   1_655     S
Ti70     Ti74    10.0   .     S
Ti70     Er78    10.001   .     S
Ti71     Ti76    10.0   .     S
Ti71     Ti75    10.0   .     S
Ti72     Ti75    10.0   1_655     S
Ti72     Ti76    10.0   .     S
Ti73     Er54    10.001   1_455     S
Ti73     Ti70    10.0   1_455     S
Ti73     Ti75    10.0   .     S
Ti74     Ti76    10.0   .     S
Ti75     Ti72    10.0   1_455     S
Er77     V1    10.0   1_556     S
Er77     Er79    10.0   1_556     S
Er78     V2    10.0   1_556     S
Er78     Er80    10.0   1_556     S
Er79     Er77    10.0   1_554     S
Er80     Er78    10.0   1_554     S
