data_lrl
_audit_creation_date              2019-12-31
_audit_creation_method            'Pymatgen'
_symmetry_space_group_name_H-M    'P1'
_symmetry_Int_Tables_number       1
loop_
_symmetry_equiv_pos_as_xyz
  x,y,z
_cell_length_a                    54.804
_cell_length_b                    34.3704
_cell_length_c                    91.4712
_cell_angle_alpha                 90.0
_cell_angle_beta                 90.0
_cell_angle_gamma                 90.0
loop_
_atom_site_label
_atom_site_type_symbol
_atom_site_fract_x
_atom_site_fract_y
_atom_site_fract_z
V1     V     0.5   0.25   0.5547
V2     V     0.5   0.75   0.5547
V3     V     0.5   0.25   0.4453
V4     V     0.5   0.75   0.4453
V5     V     0.0   0.0   0.5547
V6     V     0.0   0.5   0.5547
V7     V     0.0   0.0   0.4453
V8     V     0.0   0.5   0.4453
Er9     Er     0.9282   0.0897   0.3507
Er10     Er     0.9282   0.5897   0.3507
Er11     Er     0.5718   0.1603   0.3507
Er12     Er     0.5718   0.6603   0.3507
Er13     Er     0.5718   0.3397   0.1493
Er14     Er     0.5718   0.8397   0.1493
Er15     Er     0.9282   0.4103   0.1493
Er16     Er     0.9282   0.9103   0.1493
Ti17     Ti     0.7033   0.0   0.1953
Ti18     Ti     0.7033   0.5   0.1953
Ti19     Ti     0.7033   0.0   0.3047
Ti20     Ti     0.7033   0.5   0.3047
Ti21     Ti     0.7967   0.25   0.1953
Ti22     Ti     0.7967   0.75   0.1953
Ti23     Ti     0.7967   0.25   0.3047
Ti24     Ti     0.7967   0.75   0.3047
Er25     Er     0.0718   0.4103   0.3507
Er26     Er     0.0718   0.9103   0.3507
Er27     Er     0.4282   0.3397   0.3507
Er28     Er     0.4282   0.8397   0.3507
Er29     Er     0.4282   0.1603   0.1493
Er30     Er     0.4282   0.6603   0.1493
Er31     Er     0.0718   0.0897   0.1493
Er32     Er     0.0718   0.5897   0.1493
Ti33     Ti     0.2967   0.0   0.1953
Ti34     Ti     0.2967   0.5   0.1953
Ti35     Ti     0.2967   0.0   0.3047
Ti36     Ti     0.2967   0.5   0.3047
Ti37     Ti     0.2033   0.25   0.1953
Ti38     Ti     0.2033   0.75   0.1953
Ti39     Ti     0.2033   0.25   0.3047
Ti40     Ti     0.2033   0.75   0.3047
V41     V     0.5   0.25   0.0547
V42     V     0.5   0.75   0.0547
V43     V     0.5   0.25   0.9453
V44     V     0.5   0.75   0.9453
Er45     Er     0.4282   0.1603   0.8507
Er46     Er     0.4282   0.6603   0.8507
Er47     Er     0.0718   0.0897   0.8507
Er48     Er     0.0718   0.5897   0.8507
Er49     Er     0.0718   0.4103   0.6493
Er50     Er     0.0718   0.9103   0.6493
Er51     Er     0.4282   0.3397   0.6493
Er52     Er     0.4282   0.8397   0.6493
Ti53     Ti     0.2967   0.0   0.8047
Ti54     Ti     0.2967   0.5   0.8047
Ti55     Ti     0.2967   0.0   0.6953
Ti56     Ti     0.2967   0.5   0.6953
Ti57     Ti     0.2033   0.25   0.8047
Ti58     Ti     0.2033   0.75   0.8047
Ti59     Ti     0.2033   0.25   0.6953
Ti60     Ti     0.2033   0.75   0.6953
Er61     Er     0.5718   0.3397   0.8507
Er62     Er     0.5718   0.8397   0.8507
Er63     Er     0.9282   0.4103   0.8507
Er64     Er     0.9282   0.9103   0.8507
Er65     Er     0.5718   0.1603   0.6493
Er66     Er     0.5718   0.6603   0.6493
Er67     Er     0.9282   0.0897   0.6493
Er68     Er     0.9282   0.5897   0.6493
Ti69     Ti     0.7033   0.0   0.8047
Ti70     Ti     0.7033   0.5   0.8047
Ti71     Ti     0.7033   0.0   0.6953
Ti72     Ti     0.7033   0.5   0.6953
Ti73     Ti     0.7967   0.25   0.8047
Ti74     Ti     0.7967   0.75   0.8047
Ti75     Ti     0.7967   0.25   0.6953
Ti76     Ti     0.7967   0.75   0.6953
V77     V     0.0   0.0   0.0547
V78     V     0.0   0.5   0.0547
V79     V     0.0   0.0   0.9453
V80     V     0.0   0.5   0.9453
loop_
_geom_bond_atom_site_label_1
_geom_bond_atom_site_label_2
_geom_bond_distance
_geom_bond_site_symmetry_2
_ccdc_geom_bond_type
V1     V3    10.0   .     S
V1     Er51    10.0   .     S
V1     Er65    10.0   .     S
V2     V4    10.0   .     S
V2     Er52    10.0   .     S
V2     Er66    10.0   .     S
V3     Er11    10.0   .     S
V3     Er27    10.0   .     S
V4     Er12    10.0   .     S
V4     Er28    10.0   .     S
V5     V7    10.0   .     S
V5     Er67    10.0   1_455     S
V5     Er50    10.0   1_545     S
V6     V8    10.0   .     S
V6     Er68    10.0   1_455     S
V6     Er49    10.0   .     S
V7     Er26    10.0   1_545     S
V7     Er9    10.0   1_455     S
V8     Er25    10.0   .     S
V8     Er10    10.0   1_455     S
Er9     V7    10.0   1_655     S
Er9     Ti23    10.0   .     S
Er9     Er26    10.0   1_645     S
Er10     V8    10.0   1_655     S
Er10     Ti24    10.0   .     S
Er10     Er25    10.0   1_655     S
Er11     Ti19    10.0   .     S
Er11     Er27    10.0   .     S
Er12     Ti20    10.0   .     S
Er12     Er28    10.0   .     S
Er13     Ti18    10.0   .     S
Er13     V41    10.0   .     S
Er13     Er29    10.0   .     S
Er14     Ti17    10.0   1_565     S
Er14     V42    10.0   .     S
Er14     Er30    10.0   .     S
Er15     Ti21    10.0   .     S
Er15     V78    10.0   1_655     S
Er15     Er32    10.0   1_655     S
Er16     Ti22    10.0   .     S
Er16     V77    10.0   1_665     S
Er16     Er31    10.0   1_665     S
Ti17     Er14    10.0   1_545     S
Ti17     Ti19    10.0   .     S
Ti17     Ti21    10.0   .     S
Ti17     Ti22    10.0   1_545     S
Ti18     Ti20    10.0   .     S
Ti18     Ti22    10.0   .     S
Ti18     Ti21    10.0   .     S
Ti19     Ti24    10.0   1_545     S
Ti19     Ti23    10.0   .     S
Ti20     Ti23    10.0   .     S
Ti20     Ti24    10.0   .     S
Ti21     Ti23    10.0   .     S
Ti22     Ti24    10.0   .     S
Ti22     Ti17    10.0   1_565     S
Ti24     Ti19    10.0   1_565     S
Er25     Ti39    10.0   .     S
Er25     Er10    10.0   1_455     S
Er26     V7    10.0   1_565     S
Er26     Ti40    10.0   .     S
Er26     Er9    10.0   1_465     S
Er27     Ti36    10.0   .     S
Er28     Ti35    10.0   1_565     S
Er29     Ti33    10.0   .     S
Er29     V41    10.0   .     S
Er30     Ti34    10.0   .     S
Er30     V42    10.0   .     S
Er31     Ti37    10.0   .     S
Er31     V77    10.0   .     S
Er31     Er16    10.0   1_445     S
Er32     Ti38    10.0   .     S
Er32     V78    10.0   .     S
Er32     Er15    10.0   1_455     S
Ti33     Ti35    10.0   .     S
Ti33     Ti38    10.0   1_545     S
Ti33     Ti37    10.0   .     S
Ti34     Ti36    10.0   .     S
Ti34     Ti37    10.0   .     S
Ti34     Ti38    10.0   .     S
Ti35     Er28    10.0   1_545     S
Ti35     Ti39    10.0   .     S
Ti35     Ti40    10.0   1_545     S
Ti36     Ti40    10.0   .     S
Ti36     Ti39    10.0   .     S
Ti37     Ti39    10.0   .     S
Ti38     Ti40    10.0   .     S
Ti38     Ti33    10.0   1_565     S
Ti40     Ti35    10.0   1_565     S
V41     V43    10.0   1_554     S
V42     V44    10.0   1_554     S
V43     V41    10.0   1_556     S
V43     Er45    10.0   .     S
V43     Er61    10.0   .     S
V44     V42    10.0   1_556     S
V44     Er46    10.0   .     S
V44     Er62    10.0   .     S
Er45     Ti53    10.0   .     S
Er45     Er61    10.0   .     S
Er46     Ti54    10.0   .     S
Er46     Er62    10.0   .     S
Er47     Ti57    10.0   .     S
Er47     V79    10.0   .     S
Er47     Er64    10.0   1_445     S
Er48     Ti58    10.0   .     S
Er48     V80    10.0   .     S
Er48     Er63    10.0   1_455     S
Er49     Ti59    10.0   .     S
Er49     Er68    10.0   1_455     S
Er50     Ti60    10.0   .     S
Er50     V5    10.0   1_565     S
Er50     Er67    10.0   1_465     S
Er51     Ti56    10.0   .     S
Er51     Er65    10.0   .     S
Er52     Ti55    10.0   1_565     S
Er52     Er66    10.0   .     S
Ti53     Ti55    10.0   .     S
Ti53     Ti58    10.0   1_545     S
Ti53     Ti57    10.0   .     S
Ti54     Ti56    10.0   .     S
Ti54     Ti57    10.0   .     S
Ti54     Ti58    10.0   .     S
Ti55     Er52    10.0   1_545     S
Ti55     Ti59    10.0   .     S
Ti55     Ti60    10.0   1_545     S
Ti56     Ti60    10.0   .     S
Ti56     Ti59    10.0   .     S
Ti57     Ti59    10.0   .     S
Ti58     Ti60    10.0   .     S
Ti58     Ti53    10.0   1_565     S
Ti60     Ti55    10.0   1_565     S
Er61     Ti70    10.0   .     S
Er62     Ti69    10.0   1_565     S
Er63     Ti73    10.0   .     S
Er63     V80    10.0   1_655     S
Er63     Er48    10.0   1_655     S
Er64     Ti74    10.0   .     S
Er64     V79    10.0   1_665     S
Er64     Er47    10.0   1_665     S
Er65     Ti71    10.0   .     S
Er66     Ti72    10.0   .     S
Er67     Ti75    10.0   .     S
Er67     V5    10.0   1_655     S
Er67     Er50    10.0   1_645     S
Er68     Ti76    10.0   .     S
Er68     V6    10.0   1_655     S
Er68     Er49    10.0   1_655     S
Ti69     Er62    10.0   1_545     S
Ti69     Ti71    10.0   .     S
Ti69     Ti73    10.0   .     S
Ti69     Ti74    10.0   1_545     S
Ti70     Ti72    10.0   .     S
Ti70     Ti74    10.0   .     S
Ti70     Ti73    10.0   .     S
Ti71     Ti76    10.0   1_545     S
Ti71     Ti75    10.0   .     S
Ti72     Ti75    10.0   .     S
Ti72     Ti76    10.0   .     S
Ti73     Ti75    10.0   .     S
Ti74     Ti76    10.0   .     S
Ti74     Ti69    10.0   1_565     S
Ti76     Ti71    10.0   1_565     S
V77     V79    10.0   1_554     S
V77     Er16    10.0   1_445     S
V78     V80    10.0   1_554     S
V78     Er15    10.0   1_455     S
V79     V77    10.0   1_556     S
V79     Er64    10.0   1_445     S
V80     V78    10.0   1_556     S
V80     Er63    10.0   1_455     S
