data_lsz
_audit_creation_date              2019-12-31
_audit_creation_method            'Pymatgen'
_symmetry_space_group_name_H-M    'P1'
_symmetry_Int_Tables_number       1
loop_
_symmetry_equiv_pos_as_xyz
  x,y,z
_cell_length_a                    30.0
_cell_length_b                    30.0
_cell_length_c                    28.2846
_cell_angle_alpha                 90.0
_cell_angle_beta                 90.0
_cell_angle_gamma                 90.0
loop_
_atom_site_label
_atom_site_type_symbol
_atom_site_fract_x
_atom_site_fract_y
_atom_site_fract_z
V1     V     0.0833   0.25   0.375
V2     V     0.0833   0.25   0.875
V3     V     0.0833   0.5833   0.375
V4     V     0.0833   0.5833   0.875
V5     V     0.0833   0.9167   0.375
V6     V     0.0833   0.9167   0.875
V7     V     0.4167   0.25   0.375
V8     V     0.4167   0.25   0.875
V9     V     0.4167   0.5833   0.375
V10     V     0.4167   0.5833   0.875
V11     V     0.4167   0.9167   0.375
V12     V     0.4167   0.9167   0.875
V13     V     0.75   0.25   0.375
V14     V     0.75   0.25   0.875
V15     V     0.75   0.5833   0.375
V16     V     0.75   0.5833   0.875
V17     V     0.75   0.9167   0.375
V18     V     0.75   0.9167   0.875
V19     V     0.25   0.0833   0.125
V20     V     0.25   0.0833   0.625
V21     V     0.25   0.4167   0.125
V22     V     0.25   0.4167   0.625
V23     V     0.25   0.75   0.125
V24     V     0.25   0.75   0.625
V25     V     0.5833   0.0833   0.125
V26     V     0.5833   0.0833   0.625
V27     V     0.5833   0.4167   0.125
V28     V     0.5833   0.4167   0.625
V29     V     0.5833   0.75   0.125
V30     V     0.5833   0.75   0.625
V31     V     0.9167   0.0833   0.125
V32     V     0.9167   0.0833   0.625
V33     V     0.9167   0.4167   0.125
V34     V     0.9167   0.4167   0.625
V35     V     0.9167   0.75   0.125
V36     V     0.9167   0.75   0.625
loop_
_geom_bond_atom_site_label_1
_geom_bond_atom_site_label_2
_geom_bond_distance
_geom_bond_site_symmetry_2
_ccdc_geom_bond_type
V1     V7    10.0   .     S
V1     V13    10.0   1_455     S
V1     V5    10.0   1_545     S
V1     V3    10.0   .     S
V1     V22    10.0   .     S
V1     V19    10.0   .     S
V1     V32    10.0   1_455     S
V1     V33    10.0   1_455     S
V2     V8    10.0   .     S
V2     V14    10.0   1_455     S
V2     V6    10.0   1_545     S
V2     V4    10.0   .     S
V2     V21    10.0   1_556     S
V2     V20    10.0   .     S
V2     V31    10.0   1_456     S
V2     V34    10.0   1_455     S
V3     V9    10.0   .     S
V3     V15    10.0   1_455     S
V3     V5    10.0   .     S
V3     V24    10.0   .     S
V3     V21    10.0   .     S
V3     V34    10.0   1_455     S
V3     V35    10.0   1_455     S
V4     V10    10.0   .     S
V4     V16    10.0   1_455     S
V4     V6    10.0   .     S
V4     V23    10.0   1_556     S
V4     V22    10.0   .     S
V4     V33    10.0   1_456     S
V4     V36    10.0   1_455     S
V5     V11    10.0   .     S
V5     V17    10.0   1_455     S
V5     V1    10.0   1_565     S
V5     V20    10.0   1_565     S
V5     V23    10.0   .     S
V5     V36    10.0   1_455     S
V5     V31    10.0   1_465     S
V6     V12    10.0   .     S
V6     V18    10.0   1_455     S
V6     V2    10.0   1_565     S
V6     V19    10.0   1_566     S
V6     V24    10.0   .     S
V6     V35    10.0   1_456     S
V6     V32    10.0   1_465     S
V7     V13    10.0   .     S
V7     V11    10.0   1_545     S
V7     V9    10.0   .     S
V7     V28    10.0   .     S
V7     V25    10.0   .     S
V7     V20    10.0   .     S
V7     V21    10.0   .     S
V8     V14    10.0   .     S
V8     V12    10.0   1_545     S
V8     V10    10.0   .     S
V8     V27    10.0   1_556     S
V8     V26    10.0   .     S
V8     V19    10.0   1_556     S
V8     V22    10.0   .     S
V9     V15    10.0   .     S
V9     V11    10.0   .     S
V9     V30    10.0   .     S
V9     V27    10.0   .     S
V9     V22    10.0   .     S
V9     V23    10.0   .     S
V10     V16    10.0   .     S
V10     V12    10.0   .     S
V10     V29    10.0   1_556     S
V10     V28    10.0   .     S
V10     V21    10.0   1_556     S
V10     V24    10.0   .     S
V11     V17    10.0   .     S
V11     V7    10.0   1_565     S
V11     V26    10.0   1_565     S
V11     V29    10.0   .     S
V11     V24    10.0   .     S
V11     V19    10.0   1_565     S
V12     V18    10.0   .     S
V12     V8    10.0   1_565     S
V12     V25    10.0   1_566     S
V12     V30    10.0   .     S
V12     V23    10.0   1_556     S
V12     V20    10.0   1_565     S
V13     V1    10.0   1_655     S
V13     V17    10.0   1_545     S
V13     V15    10.0   .     S
V13     V34    10.0   .     S
V13     V31    10.0   .     S
V13     V26    10.0   .     S
V13     V27    10.0   .     S
V14     V2    10.0   1_655     S
V14     V18    10.0   1_545     S
V14     V16    10.0   .     S
V14     V33    10.0   1_556     S
V14     V32    10.0   .     S
V14     V25    10.0   1_556     S
V14     V28    10.0   .     S
V15     V3    10.0   1_655     S
V15     V17    10.0   .     S
V15     V36    10.0   .     S
V15     V33    10.0   .     S
V15     V28    10.0   .     S
V15     V29    10.0   .     S
V16     V4    10.0   1_655     S
V16     V18    10.0   .     S
V16     V35    10.0   1_556     S
V16     V34    10.0   .     S
V16     V27    10.0   1_556     S
V16     V30    10.0   .     S
V17     V5    10.0   1_655     S
V17     V13    10.0   1_565     S
V17     V32    10.0   1_565     S
V17     V35    10.0   .     S
V17     V30    10.0   .     S
V17     V25    10.0   1_565     S
V18     V6    10.0   1_655     S
V18     V14    10.0   1_565     S
V18     V31    10.0   1_566     S
V18     V36    10.0   .     S
V18     V29    10.0   1_556     S
V18     V26    10.0   1_565     S
V19     V21    10.0   .     S
V19     V23    10.0   1_545     S
V19     V31    10.0   1_455     S
V19     V25    10.0   .     S
V19     V6    10.0   1_544     S
V19     V8    10.0   1_554     S
V19     V11    10.0   1_545     S
V20     V22    10.0   .     S
V20     V24    10.0   1_545     S
V20     V32    10.0   1_455     S
V20     V26    10.0   .     S
V20     V5    10.0   1_545     S
V20     V12    10.0   1_545     S
V21     V23    10.0   .     S
V21     V33    10.0   1_455     S
V21     V27    10.0   .     S
V21     V2    10.0   1_554     S
V21     V10    10.0   1_554     S
V22     V24    10.0   .     S
V22     V34    10.0   1_455     S
V22     V28    10.0   .     S
V23     V19    10.0   1_565     S
V23     V35    10.0   1_455     S
V23     V29    10.0   .     S
V23     V4    10.0   1_554     S
V23     V12    10.0   1_554     S
V24     V20    10.0   1_565     S
V24     V36    10.0   1_455     S
V24     V30    10.0   .     S
V25     V27    10.0   .     S
V25     V29    10.0   1_545     S
V25     V31    10.0   .     S
V25     V12    10.0   1_544     S
V25     V14    10.0   1_554     S
V25     V17    10.0   1_545     S
V26     V28    10.0   .     S
V26     V30    10.0   1_545     S
V26     V32    10.0   .     S
V26     V11    10.0   1_545     S
V26     V18    10.0   1_545     S
V27     V29    10.0   .     S
V27     V33    10.0   .     S
V27     V8    10.0   1_554     S
V27     V16    10.0   1_554     S
V28     V30    10.0   .     S
V28     V34    10.0   .     S
V29     V25    10.0   1_565     S
V29     V35    10.0   .     S
V29     V10    10.0   1_554     S
V29     V18    10.0   1_554     S
V30     V26    10.0   1_565     S
V30     V36    10.0   .     S
V31     V33    10.0   .     S
V31     V35    10.0   1_545     S
V31     V19    10.0   1_655     S
V31     V18    10.0   1_544     S
V31     V2    10.0   1_654     S
V31     V5    10.0   1_645     S
V32     V34    10.0   .     S
V32     V36    10.0   1_545     S
V32     V20    10.0   1_655     S
V32     V17    10.0   1_545     S
V32     V1    10.0   1_655     S
V32     V6    10.0   1_645     S
V33     V35    10.0   .     S
V33     V21    10.0   1_655     S
V33     V14    10.0   1_554     S
V33     V4    10.0   1_654     S
V33     V1    10.0   1_655     S
V34     V36    10.0   .     S
V34     V22    10.0   1_655     S
V34     V3    10.0   1_655     S
V34     V2    10.0   1_655     S
V35     V31    10.0   1_565     S
V35     V23    10.0   1_655     S
V35     V16    10.0   1_554     S
V35     V6    10.0   1_654     S
V35     V3    10.0   1_655     S
V36     V32    10.0   1_565     S
V36     V24    10.0   1_655     S
V36     V5    10.0   1_655     S
V36     V4    10.0   1_655     S
