data_mbc
_audit_creation_date              2019-12-31
_audit_creation_method            'Pymatgen'
_symmetry_space_group_name_H-M    'P1'
_symmetry_Int_Tables_number       1
loop_
_symmetry_equiv_pos_as_xyz
  x,y,z
_cell_length_a                    30.0
_cell_length_b                    59.7473
_cell_length_c                    29.9997
_cell_angle_alpha                 90.0
_cell_angle_beta                 90.0
_cell_angle_gamma                 90.0
loop_
_atom_site_label
_atom_site_type_symbol
_atom_site_fract_x
_atom_site_fract_y
_atom_site_fract_z
V1     V     0.1667   0.8092   0.25
V2     V     0.1667   0.8092   0.5833
V3     V     0.1667   0.8092   0.9167
V4     V     0.5   0.8092   0.25
V5     V     0.5   0.8092   0.5833
V6     V     0.5   0.8092   0.9167
V7     V     0.8333   0.8092   0.25
V8     V     0.8333   0.8092   0.5833
V9     V     0.8333   0.8092   0.9167
V10     V     0.0   0.6908   0.0833
V11     V     0.0   0.6908   0.4167
V12     V     0.0   0.6908   0.75
V13     V     0.3333   0.6908   0.0833
V14     V     0.3333   0.6908   0.4167
V15     V     0.3333   0.6908   0.75
V16     V     0.6667   0.6908   0.0833
V17     V     0.6667   0.6908   0.4167
V18     V     0.6667   0.6908   0.75
Er19     Er     0.0   0.0725   0.25
Er20     Er     0.0   0.0725   0.5833
Er21     Er     0.0   0.0725   0.9167
Er22     Er     0.3333   0.0725   0.25
Er23     Er     0.3333   0.0725   0.5833
Er24     Er     0.3333   0.0725   0.9167
Er25     Er     0.6667   0.0725   0.25
Er26     Er     0.6667   0.0725   0.5833
Er27     Er     0.6667   0.0725   0.9167
Er28     Er     0.0   0.9275   0.0833
Er29     Er     0.0   0.9275   0.4167
Er30     Er     0.0   0.9275   0.75
Er31     Er     0.3333   0.9275   0.0833
Er32     Er     0.3333   0.9275   0.4167
Er33     Er     0.3333   0.9275   0.75
Er34     Er     0.6667   0.9275   0.0833
Er35     Er     0.6667   0.9275   0.4167
Er36     Er     0.6667   0.9275   0.75
V37     V     0.0   0.3092   0.25
V38     V     0.0   0.3092   0.5833
V39     V     0.0   0.3092   0.9167
V40     V     0.3333   0.3092   0.25
V41     V     0.3333   0.3092   0.5833
V42     V     0.3333   0.3092   0.9167
V43     V     0.6667   0.3092   0.25
V44     V     0.6667   0.3092   0.5833
V45     V     0.6667   0.3092   0.9167
V46     V     0.1667   0.1908   0.0833
V47     V     0.1667   0.1908   0.4167
V48     V     0.1667   0.1908   0.75
V49     V     0.5   0.1908   0.0833
V50     V     0.5   0.1908   0.4167
V51     V     0.5   0.1908   0.75
V52     V     0.8333   0.1908   0.0833
V53     V     0.8333   0.1908   0.4167
V54     V     0.8333   0.1908   0.75
Er55     Er     0.1667   0.5725   0.25
Er56     Er     0.1667   0.5725   0.5833
Er57     Er     0.1667   0.5725   0.9167
Er58     Er     0.5   0.5725   0.25
Er59     Er     0.5   0.5725   0.5833
Er60     Er     0.5   0.5725   0.9167
Er61     Er     0.8333   0.5725   0.25
Er62     Er     0.8333   0.5725   0.5833
Er63     Er     0.8333   0.5725   0.9167
Er64     Er     0.1667   0.4275   0.0833
Er65     Er     0.1667   0.4275   0.4167
Er66     Er     0.1667   0.4275   0.75
Er67     Er     0.5   0.4275   0.0833
Er68     Er     0.5   0.4275   0.4167
Er69     Er     0.5   0.4275   0.75
Er70     Er     0.8333   0.4275   0.0833
Er71     Er     0.8333   0.4275   0.4167
Er72     Er     0.8333   0.4275   0.75
loop_
_geom_bond_atom_site_label_1
_geom_bond_atom_site_label_2
_geom_bond_distance
_geom_bond_site_symmetry_2
_ccdc_geom_bond_type
V1     V11    10.0   .     S
V1     V13    10.0   .     S
V1     V10    10.0   .     S
V1     V14    10.0   .     S
V1     V3    10.0   1_554     S
V1     V2    10.0   .     S
V1     V7    10.0   1_455     S
V1     V4    10.0   .     S
V1     Er28    10.0   .     S
V1     Er29    10.0   .     S
V1     Er32    10.0   .     S
V1     Er31    10.0   .     S
V2     V12    10.0   .     S
V2     V14    10.0   .     S
V2     V11    10.0   .     S
V2     V15    10.0   .     S
V2     V3    10.0   .     S
V2     V8    10.0   1_455     S
V2     V5    10.0   .     S
V2     Er29    10.0   .     S
V2     Er30    10.0   .     S
V2     Er33    10.0   .     S
V2     Er32    10.0   .     S
V3     V10    10.0   1_556     S
V3     V15    10.0   .     S
V3     V12    10.0   .     S
V3     V13    10.0   1_556     S
V3     V1    10.0   1_556     S
V3     V9    10.0   1_455     S
V3     V6    10.0   .     S
V3     Er30    10.0   .     S
V3     Er28    10.0   1_556     S
V3     Er31    10.0   1_556     S
V3     Er33    10.0   .     S
V4     V14    10.0   .     S
V4     V16    10.0   .     S
V4     V13    10.0   .     S
V4     V17    10.0   .     S
V4     V6    10.0   1_554     S
V4     V5    10.0   .     S
V4     V7    10.0   .     S
V4     Er31    10.0   .     S
V4     Er32    10.0   .     S
V4     Er35    10.0   .     S
V4     Er34    10.0   .     S
V5     V15    10.0   .     S
V5     V17    10.0   .     S
V5     V14    10.0   .     S
V5     V18    10.0   .     S
V5     V6    10.0   .     S
V5     V8    10.0   .     S
V5     Er32    10.0   .     S
V5     Er33    10.0   .     S
V5     Er36    10.0   .     S
V5     Er35    10.0   .     S
V6     V13    10.0   1_556     S
V6     V18    10.0   .     S
V6     V15    10.0   .     S
V6     V16    10.0   1_556     S
V6     V4    10.0   1_556     S
V6     V9    10.0   .     S
V6     Er33    10.0   .     S
V6     Er31    10.0   1_556     S
V6     Er34    10.0   1_556     S
V6     Er36    10.0   .     S
V7     V17    10.0   .     S
V7     V10    10.0   1_655     S
V7     V16    10.0   .     S
V7     V11    10.0   1_655     S
V7     V9    10.0   1_554     S
V7     V8    10.0   .     S
V7     V1    10.0   1_655     S
V7     Er34    10.0   .     S
V7     Er35    10.0   .     S
V7     Er29    10.0   1_655     S
V7     Er28    10.0   1_655     S
V8     V18    10.0   .     S
V8     V11    10.0   1_655     S
V8     V17    10.0   .     S
V8     V12    10.0   1_655     S
V8     V9    10.0   .     S
V8     V2    10.0   1_655     S
V8     Er35    10.0   .     S
V8     Er36    10.0   .     S
V8     Er30    10.0   1_655     S
V8     Er29    10.0   1_655     S
V9     V16    10.0   1_556     S
V9     V12    10.0   1_655     S
V9     V18    10.0   .     S
V9     V10    10.0   1_656     S
V9     V7    10.0   1_556     S
V9     V3    10.0   1_655     S
V9     Er36    10.0   .     S
V9     Er34    10.0   1_556     S
V9     Er28    10.0   1_656     S
V9     Er30    10.0   1_655     S
V10     V3    10.0   1_554     S
V10     V7    10.0   1_455     S
V10     V9    10.0   1_454     S
V10     V11    10.0   .     S
V10     V12    10.0   1_554     S
V10     V13    10.0   .     S
V10     V16    10.0   1_455     S
V10     Er57    10.0   1_554     S
V10     Er55    10.0   .     S
V10     Er61    10.0   1_455     S
V10     Er63    10.0   1_454     S
V11     V8    10.0   1_455     S
V11     V7    10.0   1_455     S
V11     V12    10.0   .     S
V11     V14    10.0   .     S
V11     V17    10.0   1_455     S
V11     Er55    10.0   .     S
V11     Er56    10.0   .     S
V11     Er62    10.0   1_455     S
V11     Er61    10.0   1_455     S
V12     V9    10.0   1_455     S
V12     V8    10.0   1_455     S
V12     V10    10.0   1_556     S
V12     V15    10.0   .     S
V12     V18    10.0   1_455     S
V12     Er56    10.0   .     S
V12     Er57    10.0   .     S
V12     Er63    10.0   1_455     S
V12     Er62    10.0   1_455     S
V13     V6    10.0   1_554     S
V13     V3    10.0   1_554     S
V13     V14    10.0   .     S
V13     V15    10.0   1_554     S
V13     V16    10.0   .     S
V13     Er60    10.0   1_554     S
V13     Er58    10.0   .     S
V13     Er55    10.0   .     S
V13     Er57    10.0   1_554     S
V14     V15    10.0   .     S
V14     V17    10.0   .     S
V14     Er58    10.0   .     S
V14     Er59    10.0   .     S
V14     Er56    10.0   .     S
V14     Er55    10.0   .     S
V15     V13    10.0   1_556     S
V15     V18    10.0   .     S
V15     Er59    10.0   .     S
V15     Er60    10.0   .     S
V15     Er57    10.0   .     S
V15     Er56    10.0   .     S
V16     V9    10.0   1_554     S
V16     V6    10.0   1_554     S
V16     V17    10.0   .     S
V16     V18    10.0   1_554     S
V16     V10    10.0   1_655     S
V16     Er63    10.0   1_554     S
V16     Er61    10.0   .     S
V16     Er58    10.0   .     S
V16     Er60    10.0   1_554     S
V17     V18    10.0   .     S
V17     V11    10.0   1_655     S
V17     Er61    10.0   .     S
V17     Er62    10.0   .     S
V17     Er59    10.0   .     S
V17     Er58    10.0   .     S
V18     V16    10.0   1_556     S
V18     V12    10.0   1_655     S
V18     Er62    10.0   .     S
V18     Er63    10.0   .     S
V18     Er60    10.0   .     S
V18     Er59    10.0   .     S
Er19     Er28    10.0   1_545     S
Er19     Er29    10.0   1_545     S
Er19     Er21    10.0   1_554     S
Er19     Er20    10.0   .     S
Er19     Er22    10.0   .     S
Er19     Er25    10.0   1_455     S
Er19     V53    10.0   1_455     S
Er19     V52    10.0   1_455     S
Er19     V46    10.0   .     S
Er19     V47    10.0   .     S
Er20     Er29    10.0   1_545     S
Er20     Er30    10.0   1_545     S
Er20     Er21    10.0   .     S
Er20     Er23    10.0   .     S
Er20     Er26    10.0   1_455     S
Er20     V54    10.0   1_455     S
Er20     V53    10.0   1_455     S
Er20     V47    10.0   .     S
Er20     V48    10.0   .     S
Er21     Er30    10.0   1_545     S
Er21     Er28    10.0   1_546     S
Er21     Er19    10.0   1_556     S
Er21     Er24    10.0   .     S
Er21     Er27    10.0   1_455     S
Er21     V52    10.0   1_456     S
Er21     V54    10.0   1_455     S
Er21     V48    10.0   .     S
Er21     V46    10.0   1_556     S
Er22     Er31    10.0   1_545     S
Er22     Er32    10.0   1_545     S
Er22     Er24    10.0   1_554     S
Er22     Er23    10.0   .     S
Er22     Er25    10.0   .     S
Er22     V47    10.0   .     S
Er22     V46    10.0   .     S
Er22     V49    10.0   .     S
Er22     V50    10.0   .     S
Er23     Er32    10.0   1_545     S
Er23     Er33    10.0   1_545     S
Er23     Er24    10.0   .     S
Er23     Er26    10.0   .     S
Er23     V48    10.0   .     S
Er23     V47    10.0   .     S
Er23     V50    10.0   .     S
Er23     V51    10.0   .     S
Er24     Er33    10.0   1_545     S
Er24     Er31    10.0   1_546     S
Er24     Er22    10.0   1_556     S
Er24     Er27    10.0   .     S
Er24     V46    10.0   1_556     S
Er24     V48    10.0   .     S
Er24     V51    10.0   .     S
Er24     V49    10.0   1_556     S
Er25     Er34    10.0   1_545     S
Er25     Er35    10.0   1_545     S
Er25     Er27    10.0   1_554     S
Er25     Er26    10.0   .     S
Er25     Er19    10.0   1_655     S
Er25     V50    10.0   .     S
Er25     V49    10.0   .     S
Er25     V52    10.0   .     S
Er25     V53    10.0   .     S
Er26     Er35    10.0   1_545     S
Er26     Er36    10.0   1_545     S
Er26     Er27    10.0   .     S
Er26     Er20    10.0   1_655     S
Er26     V51    10.0   .     S
Er26     V50    10.0   .     S
Er26     V53    10.0   .     S
Er26     V54    10.0   .     S
Er27     Er36    10.0   1_545     S
Er27     Er34    10.0   1_546     S
Er27     Er25    10.0   1_556     S
Er27     Er21    10.0   1_655     S
Er27     V49    10.0   1_556     S
Er27     V51    10.0   .     S
Er27     V54    10.0   .     S
Er27     V52    10.0   1_556     S
Er28     Er19    10.0   1_565     S
Er28     Er21    10.0   1_564     S
Er28     Er29    10.0   .     S
Er28     Er30    10.0   1_554     S
Er28     Er31    10.0   .     S
Er28     Er34    10.0   1_455     S
Er28     V3    10.0   1_554     S
Er28     V9    10.0   1_454     S
Er28     V7    10.0   1_455     S
Er29     Er20    10.0   1_565     S
Er29     Er19    10.0   1_565     S
Er29     Er30    10.0   .     S
Er29     Er32    10.0   .     S
Er29     Er35    10.0   1_455     S
Er29     V7    10.0   1_455     S
Er29     V8    10.0   1_455     S
Er30     Er21    10.0   1_565     S
Er30     Er20    10.0   1_565     S
Er30     Er28    10.0   1_556     S
Er30     Er33    10.0   .     S
Er30     Er36    10.0   1_455     S
Er30     V8    10.0   1_455     S
Er30     V9    10.0   1_455     S
Er31     Er22    10.0   1_565     S
Er31     Er24    10.0   1_564     S
Er31     Er32    10.0   .     S
Er31     Er33    10.0   1_554     S
Er31     Er34    10.0   .     S
Er31     V6    10.0   1_554     S
Er31     V3    10.0   1_554     S
Er32     Er23    10.0   1_565     S
Er32     Er22    10.0   1_565     S
Er32     Er33    10.0   .     S
Er32     Er35    10.0   .     S
Er33     Er24    10.0   1_565     S
Er33     Er23    10.0   1_565     S
Er33     Er31    10.0   1_556     S
Er33     Er36    10.0   .     S
Er34     Er25    10.0   1_565     S
Er34     Er27    10.0   1_564     S
Er34     Er35    10.0   .     S
Er34     Er36    10.0   1_554     S
Er34     Er28    10.0   1_655     S
Er34     V9    10.0   1_554     S
Er34     V6    10.0   1_554     S
Er35     Er26    10.0   1_565     S
Er35     Er25    10.0   1_565     S
Er35     Er36    10.0   .     S
Er35     Er29    10.0   1_655     S
Er36     Er27    10.0   1_565     S
Er36     Er26    10.0   1_565     S
Er36     Er34    10.0   1_556     S
Er36     Er30    10.0   1_655     S
V37     V52    10.0   1_455     S
V37     V47    10.0   .     S
V37     V53    10.0   1_455     S
V37     V46    10.0   .     S
V37     V39    10.0   1_554     S
V37     V38    10.0   .     S
V37     V40    10.0   .     S
V37     V43    10.0   1_455     S
V37     Er70    10.0   1_455     S
V37     Er71    10.0   1_455     S
V37     Er65    10.0   .     S
V37     Er64    10.0   .     S
V38     V53    10.0   1_455     S
V38     V48    10.0   .     S
V38     V54    10.0   1_455     S
V38     V47    10.0   .     S
V38     V39    10.0   .     S
V38     V41    10.0   .     S
V38     V44    10.0   1_455     S
V38     Er71    10.0   1_455     S
V38     Er72    10.0   1_455     S
V38     Er66    10.0   .     S
V38     Er65    10.0   .     S
V39     V54    10.0   1_455     S
V39     V46    10.0   1_556     S
V39     V52    10.0   1_456     S
V39     V48    10.0   .     S
V39     V37    10.0   1_556     S
V39     V42    10.0   .     S
V39     V45    10.0   1_455     S
V39     Er72    10.0   1_455     S
V39     Er70    10.0   1_456     S
V39     Er64    10.0   1_556     S
V39     Er66    10.0   .     S
V40     V46    10.0   .     S
V40     V50    10.0   .     S
V40     V47    10.0   .     S
V40     V49    10.0   .     S
V40     V42    10.0   1_554     S
V40     V41    10.0   .     S
V40     V43    10.0   .     S
V40     Er64    10.0   .     S
V40     Er65    10.0   .     S
V40     Er68    10.0   .     S
V40     Er67    10.0   .     S
V41     V47    10.0   .     S
V41     V51    10.0   .     S
V41     V48    10.0   .     S
V41     V50    10.0   .     S
V41     V42    10.0   .     S
V41     V44    10.0   .     S
V41     Er65    10.0   .     S
V41     Er66    10.0   .     S
V41     Er69    10.0   .     S
V41     Er68    10.0   .     S
V42     V48    10.0   .     S
V42     V49    10.0   1_556     S
V42     V46    10.0   1_556     S
V42     V51    10.0   .     S
V42     V40    10.0   1_556     S
V42     V45    10.0   .     S
V42     Er66    10.0   .     S
V42     Er64    10.0   1_556     S
V42     Er67    10.0   1_556     S
V42     Er69    10.0   .     S
V43     V49    10.0   .     S
V43     V53    10.0   .     S
V43     V50    10.0   .     S
V43     V52    10.0   .     S
V43     V45    10.0   1_554     S
V43     V44    10.0   .     S
V43     V37    10.0   1_655     S
V43     Er67    10.0   .     S
V43     Er68    10.0   .     S
V43     Er71    10.0   .     S
V43     Er70    10.0   .     S
V44     V50    10.0   .     S
V44     V54    10.0   .     S
V44     V51    10.0   .     S
V44     V53    10.0   .     S
V44     V45    10.0   .     S
V44     V38    10.0   1_655     S
V44     Er68    10.0   .     S
V44     Er69    10.0   .     S
V44     Er72    10.0   .     S
V44     Er71    10.0   .     S
V45     V51    10.0   .     S
V45     V52    10.0   1_556     S
V45     V49    10.0   1_556     S
V45     V54    10.0   .     S
V45     V43    10.0   1_556     S
V45     V39    10.0   1_655     S
V45     Er69    10.0   .     S
V45     Er67    10.0   1_556     S
V45     Er70    10.0   1_556     S
V45     Er72    10.0   .     S
V46     V39    10.0   1_554     S
V46     V42    10.0   1_554     S
V46     V47    10.0   .     S
V46     V48    10.0   1_554     S
V46     V52    10.0   1_455     S
V46     V49    10.0   .     S
V46     Er24    10.0   1_554     S
V46     Er21    10.0   1_554     S
V47     V48    10.0   .     S
V47     V53    10.0   1_455     S
V47     V50    10.0   .     S
V48     V46    10.0   1_556     S
V48     V54    10.0   1_455     S
V48     V51    10.0   .     S
V49     V42    10.0   1_554     S
V49     V45    10.0   1_554     S
V49     V50    10.0   .     S
V49     V51    10.0   1_554     S
V49     V52    10.0   .     S
V49     Er27    10.0   1_554     S
V49     Er24    10.0   1_554     S
V50     V51    10.0   .     S
V50     V53    10.0   .     S
V51     V49    10.0   1_556     S
V51     V54    10.0   .     S
V52     V37    10.0   1_655     S
V52     V45    10.0   1_554     S
V52     V39    10.0   1_654     S
V52     V53    10.0   .     S
V52     V54    10.0   1_554     S
V52     V46    10.0   1_655     S
V52     Er21    10.0   1_654     S
V52     Er19    10.0   1_655     S
V52     Er27    10.0   1_554     S
V53     V38    10.0   1_655     S
V53     V37    10.0   1_655     S
V53     V54    10.0   .     S
V53     V47    10.0   1_655     S
V53     Er19    10.0   1_655     S
V53     Er20    10.0   1_655     S
V54     V39    10.0   1_655     S
V54     V38    10.0   1_655     S
V54     V52    10.0   1_556     S
V54     V48    10.0   1_655     S
V54     Er20    10.0   1_655     S
V54     Er21    10.0   1_655     S
Er55     Er64    10.0   .     S
Er55     Er65    10.0   .     S
Er55     Er57    10.0   1_554     S
Er55     Er56    10.0   .     S
Er55     Er61    10.0   1_455     S
Er55     Er58    10.0   .     S
Er56     Er65    10.0   .     S
Er56     Er66    10.0   .     S
Er56     Er57    10.0   .     S
Er56     Er62    10.0   1_455     S
Er56     Er59    10.0   .     S
Er57     V10    10.0   1_556     S
Er57     V13    10.0   1_556     S
Er57     Er66    10.0   .     S
Er57     Er64    10.0   1_556     S
Er57     Er55    10.0   1_556     S
Er57     Er63    10.0   1_455     S
Er57     Er60    10.0   .     S
Er58     Er67    10.0   .     S
Er58     Er68    10.0   .     S
Er58     Er60    10.0   1_554     S
Er58     Er59    10.0   .     S
Er58     Er61    10.0   .     S
Er59     Er68    10.0   .     S
Er59     Er69    10.0   .     S
Er59     Er60    10.0   .     S
Er59     Er62    10.0   .     S
Er60     V13    10.0   1_556     S
Er60     V16    10.0   1_556     S
Er60     Er69    10.0   .     S
Er60     Er67    10.0   1_556     S
Er60     Er58    10.0   1_556     S
Er60     Er63    10.0   .     S
Er61     V10    10.0   1_655     S
Er61     V11    10.0   1_655     S
Er61     Er70    10.0   .     S
Er61     Er71    10.0   .     S
Er61     Er63    10.0   1_554     S
Er61     Er62    10.0   .     S
Er61     Er55    10.0   1_655     S
Er62     V11    10.0   1_655     S
Er62     V12    10.0   1_655     S
Er62     Er71    10.0   .     S
Er62     Er72    10.0   .     S
Er62     Er63    10.0   .     S
Er62     Er56    10.0   1_655     S
Er63     V16    10.0   1_556     S
Er63     V12    10.0   1_655     S
Er63     V10    10.0   1_656     S
Er63     Er72    10.0   .     S
Er63     Er70    10.0   1_556     S
Er63     Er61    10.0   1_556     S
Er63     Er57    10.0   1_655     S
Er64     Er57    10.0   1_554     S
Er64     Er65    10.0   .     S
Er64     Er66    10.0   1_554     S
Er64     Er70    10.0   1_455     S
Er64     Er67    10.0   .     S
Er64     V42    10.0   1_554     S
Er64     V39    10.0   1_554     S
Er65     Er66    10.0   .     S
Er65     Er71    10.0   1_455     S
Er65     Er68    10.0   .     S
Er66     Er64    10.0   1_556     S
Er66     Er72    10.0   1_455     S
Er66     Er69    10.0   .     S
Er67     Er60    10.0   1_554     S
Er67     Er68    10.0   .     S
Er67     Er69    10.0   1_554     S
Er67     Er70    10.0   .     S
Er67     V45    10.0   1_554     S
Er67     V42    10.0   1_554     S
Er68     Er69    10.0   .     S
Er68     Er71    10.0   .     S
Er69     Er67    10.0   1_556     S
Er69     Er72    10.0   .     S
Er70     Er63    10.0   1_554     S
Er70     Er71    10.0   .     S
Er70     Er72    10.0   1_554     S
Er70     Er64    10.0   1_655     S
Er70     V37    10.0   1_655     S
Er70     V39    10.0   1_654     S
Er70     V45    10.0   1_554     S
Er71     Er72    10.0   .     S
Er71     Er65    10.0   1_655     S
Er71     V38    10.0   1_655     S
Er71     V37    10.0   1_655     S
Er72     Er70    10.0   1_556     S
Er72     Er66    10.0   1_655     S
Er72     V39    10.0   1_655     S
Er72     V38    10.0   1_655     S
