data_mcd
_audit_creation_date              2019-12-31
_audit_creation_method            'Pymatgen'
_symmetry_space_group_name_H-M    'P1'
_symmetry_Int_Tables_number       1
loop_
_symmetry_equiv_pos_as_xyz
  x,y,z
_cell_length_a                    23.1482
_cell_length_b                    39.5014
_cell_length_c                    25.0706
_cell_angle_alpha                 90.0
_cell_angle_beta                 90.0
_cell_angle_gamma                 90.0
loop_
_atom_site_label
_atom_site_type_symbol
_atom_site_fract_x
_atom_site_fract_y
_atom_site_fract_z
Er1     Er     0.216   0.25   0.0
Er2     Er     0.216   0.75   0.0
V3     V     0.5   0.25   0.3006
V4     V     0.5   0.75   0.3006
Er5     Er     0.784   0.25   0.0
Er6     Er     0.784   0.75   0.0
V7     V     0.5   0.25   0.6994
V8     V     0.5   0.75   0.6994
V9     V     0.0   0.0   0.6994
V10     V     0.0   0.5   0.6994
V11     V     0.0   0.0   0.3006
V12     V     0.0   0.5   0.3006
Er13     Er     0.284   0.0   0.0
Er14     Er     0.284   0.5   0.0
Er15     Er     0.716   0.0   0.0
Er16     Er     0.716   0.5   0.0
loop_
_geom_bond_atom_site_label_1
_geom_bond_atom_site_label_2
_geom_bond_distance
_geom_bond_site_symmetry_2
_ccdc_geom_bond_type
Er1     V3    10.0   .     S
Er1     V7    10.0   1_554     S
Er1     Er13    10.0   .     S
Er1     Er14    10.0   .     S
Er1     Er5    10.0   1_455     S
Er2     V4    10.0   .     S
Er2     V8    10.0   1_554     S
Er2     Er14    10.0   .     S
Er2     Er13    10.0   1_565     S
Er2     Er6    10.0   1_455     S
V3     Er5    10.0   .     S
V3     V7    10.0   .     S
V4     Er6    10.0   .     S
V4     V8    10.0   .     S
Er5     V7    10.0   1_554     S
Er5     Er16    10.0   .     S
Er5     Er15    10.0   .     S
Er5     Er1    10.0   1_655     S
Er6     V8    10.0   1_554     S
Er6     Er15    10.0   1_565     S
Er6     Er16    10.0   .     S
Er6     Er2    10.0   1_655     S
V7     Er5    10.0   1_556     S
V7     Er1    10.0   1_556     S
V8     Er6    10.0   1_556     S
V8     Er2    10.0   1_556     S
V9     Er15    10.0   1_456     S
V9     Er13    10.0   1_556     S
V9     V11    10.0   .     S
V10     Er16    10.0   1_456     S
V10     Er14    10.0   1_556     S
V10     V12    10.0   .     S
V11     Er15    10.0   1_455     S
V11     Er13    10.0   .     S
V12     Er16    10.0   1_455     S
V12     Er14    10.0   .     S
Er13     V9    10.0   1_554     S
Er13     Er2    10.0   1_545     S
Er13     Er15    10.0   .     S
Er14     V10    10.0   1_554     S
Er14     Er16    10.0   .     S
Er15     V9    10.0   1_654     S
Er15     V11    10.0   1_655     S
Er15     Er6    10.0   1_545     S
Er16     V10    10.0   1_654     S
Er16     V12    10.0   1_655     S
