data_mcf-d
_audit_creation_date              2019-12-31
_audit_creation_method            'Pymatgen'
_symmetry_space_group_name_H-M    'P1'
_symmetry_Int_Tables_number       1
loop_
_symmetry_equiv_pos_as_xyz
  x,y,z
_cell_length_a                    39.8984
_cell_length_b                    21.4252
_cell_length_c                    32.8308
_cell_angle_alpha                 90.0
_cell_angle_beta                 90.0
_cell_angle_gamma                 90.0
loop_
_atom_site_label
_atom_site_type_symbol
_atom_site_fract_x
_atom_site_fract_y
_atom_site_fract_z
V1     V     0.25   0.5   0.0
V2     V     0.25   0.5   0.5
V3     V     0.75   0.5   0.0
V4     V     0.75   0.5   0.5
V5     V     0.0   0.0   0.0
V6     V     0.0   0.0   0.5
V7     V     0.5   0.0   0.0
V8     V     0.5   0.0   0.5
Er9     Er     0.0   0.2666   0.25
Er10     Er     0.0   0.2666   0.75
Er11     Er     0.5   0.2666   0.25
Er12     Er     0.5   0.2666   0.75
Er13     Er     0.0   0.7334   0.25
Er14     Er     0.0   0.7334   0.75
Er15     Er     0.5   0.7334   0.25
Er16     Er     0.5   0.7334   0.75
Er17     Er     0.25   0.7666   0.25
Er18     Er     0.25   0.7666   0.75
Er19     Er     0.75   0.7666   0.25
Er20     Er     0.75   0.7666   0.75
Er21     Er     0.25   0.2334   0.25
Er22     Er     0.25   0.2334   0.75
Er23     Er     0.75   0.2334   0.25
Er24     Er     0.75   0.2334   0.75
loop_
_geom_bond_atom_site_label_1
_geom_bond_atom_site_label_2
_geom_bond_distance
_geom_bond_site_symmetry_2
_ccdc_geom_bond_type
V1     Er21    10.0   .     S
V1     Er22    10.0   1_554     S
V1     Er17    10.0   .     S
V1     Er18    10.0   1_554     S
V2     Er22    10.0   .     S
V2     Er21    10.0   .     S
V2     Er18    10.0   .     S
V2     Er17    10.0   .     S
V3     Er23    10.0   .     S
V3     Er24    10.0   1_554     S
V3     Er19    10.0   .     S
V3     Er20    10.0   1_554     S
V4     Er24    10.0   .     S
V4     Er23    10.0   .     S
V4     Er20    10.0   .     S
V4     Er19    10.0   .     S
V5     Er9    10.0   .     S
V5     Er13    10.0   1_545     S
V5     Er14    10.0   1_544     S
V5     Er10    10.0   1_554     S
V6     Er10    10.0   .     S
V6     Er14    10.0   1_545     S
V6     Er13    10.0   1_545     S
V6     Er9    10.0   .     S
V7     Er11    10.0   .     S
V7     Er15    10.0   1_545     S
V7     Er16    10.0   1_544     S
V7     Er12    10.0   1_554     S
V8     Er12    10.0   .     S
V8     Er16    10.0   1_545     S
V8     Er15    10.0   1_545     S
V8     Er11    10.0   .     S
Er9     Er13    10.0   .     S
Er9     Er21    10.0   .     S
Er9     Er23    10.0   1_455     S
Er10     V5    10.0   1_556     S
Er10     Er14    10.0   .     S
Er10     Er22    10.0   .     S
Er10     Er24    10.0   1_455     S
Er11     Er15    10.0   .     S
Er11     Er23    10.0   .     S
Er11     Er21    10.0   .     S
Er12     V7    10.0   1_556     S
Er12     Er16    10.0   .     S
Er12     Er24    10.0   .     S
Er12     Er22    10.0   .     S
Er13     V5    10.0   1_565     S
Er13     V6    10.0   1_565     S
Er13     Er17    10.0   .     S
Er13     Er19    10.0   1_455     S
Er14     V6    10.0   1_565     S
Er14     V5    10.0   1_566     S
Er14     Er18    10.0   .     S
Er14     Er20    10.0   1_455     S
Er15     V7    10.0   1_565     S
Er15     V8    10.0   1_565     S
Er15     Er19    10.0   .     S
Er15     Er17    10.0   .     S
Er16     V8    10.0   1_565     S
Er16     V7    10.0   1_566     S
Er16     Er20    10.0   .     S
Er16     Er18    10.0   .     S
Er17     Er21    10.0   1_565     S
Er18     V1    10.0   1_556     S
Er18     Er22    10.0   1_565     S
Er19     Er23    10.0   1_565     S
Er19     Er13    10.0   1_655     S
Er20     V3    10.0   1_556     S
Er20     Er24    10.0   1_565     S
Er20     Er14    10.0   1_655     S
Er21     Er17    10.0   1_545     S
Er22     V1    10.0   1_556     S
Er22     Er18    10.0   1_545     S
Er23     Er19    10.0   1_545     S
Er23     Er9    10.0   1_655     S
Er24     V3    10.0   1_556     S
Er24     Er20    10.0   1_545     S
Er24     Er10    10.0   1_655     S
