data_mco
_audit_creation_date              2019-12-31
_audit_creation_method            'Pymatgen'
_symmetry_space_group_name_H-M    'P1'
_symmetry_Int_Tables_number       1
loop_
_symmetry_equiv_pos_as_xyz
  x,y,z
_cell_length_a                    33.0234
_cell_length_b                    33.0234
_cell_length_c                    37.4824
_cell_angle_alpha                 90.0
_cell_angle_beta                 90.0
_cell_angle_gamma                 120.0
loop_
_atom_site_label
_atom_site_type_symbol
_atom_site_fract_x
_atom_site_fract_y
_atom_site_fract_z
Ti1     Ti     0.6972   0.0   0.0
Ti2     Ti     0.6972   0.0   0.5
Ce3     Ce     0.5914   0.0   0.25
Ce4     Ce     0.5914   0.0   0.75
Ti5     Ti     0.0   0.6972   0.0
Ti6     Ti     0.0   0.6972   0.5
Ce7     Ce     1.0   0.5914   0.25
Ce8     Ce     1.0   0.5914   0.75
Er9     Er     0.6667   0.3333   0.25
Er10     Er     0.6667   0.3333   0.75
Er11     Er     0.3333   0.6667   0.25
Er12     Er     0.3333   0.6667   0.75
Ti13     Ti     0.3028   0.3028   0.0
Ti14     Ti     0.3028   0.3028   0.5
Ce15     Ce     0.4085   0.4085   0.25
Ce16     Ce     0.4085   0.4085   0.75
V17     V     0.0   0.0   0.0
V18     V     0.0   0.0   0.5
loop_
_geom_bond_atom_site_label_1
_geom_bond_atom_site_label_2
_geom_bond_distance
_geom_bond_site_symmetry_2
_ccdc_geom_bond_type
Ti1     V17    10.0   1_655     S
Ti1     Ce4    10.0   1_554     S
Ti1     Ce3    10.0   .     S
Ti2     V18    10.0   1_655     S
Ti2     Ce3    10.0   .     S
Ti2     Ce4    10.0   .     S
Ce3     Er9    10.0   .     S
Ce3     Er11    10.0   1_545     S
Ce4     Ti1    10.0   1_556     S
Ce4     Er10    10.0   .     S
Ce4     Er12    10.0   1_545     S
Ti5     V17    10.0   1_565     S
Ti5     Ce7    10.0   1_455     S
Ti5     Ce8    10.0   1_454     S
Ti6     V18    10.0   1_565     S
Ti6     Ce8    10.0   1_455     S
Ti6     Ce7    10.0   1_455     S
Ce7     Ti5    10.0   1_655     S
Ce7     Ti6    10.0   1_655     S
Ce7     Er9    10.0   .     S
Ce7     Er11    10.0   1_655     S
Ce8     Ti6    10.0   1_655     S
Ce8     Ti5    10.0   1_656     S
Ce8     Er10    10.0   .     S
Ce8     Er12    10.0   1_655     S
Er9     Ce15    10.0   .     S
Er10     Ce16    10.0   .     S
Er11     Ce3    10.0   1_565     S
Er11     Ce7    10.0   1_455     S
Er11     Ce15    10.0   .     S
Er12     Ce4    10.0   1_565     S
Er12     Ce8    10.0   1_455     S
Er12     Ce16    10.0   .     S
Ti13     V17    10.0   .     S
Ti13     Ce15    10.0   .     S
Ti13     Ce16    10.0   1_554     S
Ti14     V18    10.0   .     S
Ti14     Ce16    10.0   .     S
Ti14     Ce15    10.0   .     S
Ce16     Ti13    10.0   1_556     S
V17     Ti1    10.0   1_455     S
V17     Ti5    10.0   1_545     S
V18     Ti2    10.0   1_455     S
V18     Ti6    10.0   1_545     S
