data_mdf
_audit_creation_date              2019-12-31
_audit_creation_method            'Pymatgen'
_symmetry_space_group_name_H-M    'P1'
_symmetry_Int_Tables_number       1
loop_
_symmetry_equiv_pos_as_xyz
  x,y,z
_cell_length_a                    23.4391
_cell_length_b                    23.4391
_cell_length_c                    29.0604
_cell_angle_alpha                 90.0
_cell_angle_beta                 90.0
_cell_angle_gamma                 90.0
loop_
_atom_site_label
_atom_site_type_symbol
_atom_site_fract_x
_atom_site_fract_y
_atom_site_fract_z
V1     V     0.9573   0.25   0.0417
V2     V     0.9573   0.25   0.375
V3     V     0.9573   0.25   0.7083
V4     V     0.75   0.4573   0.125
V5     V     0.75   0.4573   0.4583
V6     V     0.75   0.4573   0.7917
V7     V     0.75   0.0427   0.2917
V8     V     0.75   0.0427   0.625
V9     V     0.75   0.0427   0.9583
V10     V     0.5427   0.25   0.2083
V11     V     0.5427   0.25   0.5417
V12     V     0.5427   0.25   0.875
V13     V     0.25   0.5427   0.125
V14     V     0.25   0.5427   0.4583
V15     V     0.25   0.5427   0.7917
V16     V     0.4573   0.75   0.2083
V17     V     0.4573   0.75   0.5417
V18     V     0.4573   0.75   0.875
V19     V     0.25   0.9573   0.2917
V20     V     0.25   0.9573   0.625
V21     V     0.25   0.9573   0.9583
V22     V     0.0427   0.75   0.0417
V23     V     0.0427   0.75   0.375
V24     V     0.0427   0.75   0.7083
loop_
_geom_bond_atom_site_label_1
_geom_bond_atom_site_label_2
_geom_bond_distance
_geom_bond_site_symmetry_2
_ccdc_geom_bond_type
V1     V6    10.0   1_554     S
V1     V7    10.0   .     S
V1     V21    10.0   1_644     S
V1     V13    10.0   1_655     S
V2     V4    10.0   .     S
V2     V8    10.0   .     S
V2     V19    10.0   1_645     S
V2     V14    10.0   1_655     S
V3     V5    10.0   .     S
V3     V9    10.0   .     S
V3     V20    10.0   1_645     S
V3     V15    10.0   1_655     S
V4     V12    10.0   1_554     S
V4     V22    10.0   1_655     S
V4     V16    10.0   .     S
V5     V10    10.0   .     S
V5     V23    10.0   1_655     S
V5     V17    10.0   .     S
V6     V1    10.0   1_556     S
V6     V11    10.0   .     S
V6     V24    10.0   1_655     S
V6     V18    10.0   .     S
V7     V11    10.0   .     S
V7     V16    10.0   1_545     S
V7     V23    10.0   1_645     S
V8     V12    10.0   .     S
V8     V17    10.0   1_545     S
V8     V24    10.0   1_645     S
V9     V10    10.0   1_556     S
V9     V18    10.0   1_545     S
V9     V22    10.0   1_646     S
V10     V9    10.0   1_554     S
V10     V19    10.0   1_545     S
V10     V13    10.0   .     S
V11     V20    10.0   1_545     S
V11     V14    10.0   .     S
V12     V4    10.0   1_556     S
V12     V21    10.0   1_545     S
V12     V15    10.0   .     S
V13     V18    10.0   1_554     S
V13     V23    10.0   .     S
V13     V1    10.0   1_455     S
V14     V16    10.0   .     S
V14     V24    10.0   .     S
V14     V2    10.0   1_455     S
V15     V17    10.0   .     S
V15     V22    10.0   1_556     S
V15     V3    10.0   1_455     S
V16     V21    10.0   1_554     S
V16     V7    10.0   1_565     S
V17     V19    10.0   .     S
V17     V8    10.0   1_565     S
V18     V13    10.0   1_556     S
V18     V20    10.0   .     S
V18     V9    10.0   1_565     S
V19     V22    10.0   .     S
V19     V10    10.0   1_565     S
V19     V2    10.0   1_465     S
V20     V23    10.0   .     S
V20     V11    10.0   1_565     S
V20     V3    10.0   1_465     S
V21     V16    10.0   1_556     S
V21     V24    10.0   .     S
V21     V12    10.0   1_565     S
V21     V1    10.0   1_466     S
V22     V15    10.0   1_554     S
V22     V9    10.0   1_464     S
V22     V4    10.0   1_455     S
V23     V7    10.0   1_465     S
V23     V5    10.0   1_455     S
V24     V8    10.0   1_465     S
V24     V6    10.0   1_455     S
