data_mgz-x
_audit_creation_date              2019-12-31
_audit_creation_method            'Pymatgen'
_symmetry_space_group_name_H-M    'P1'
_symmetry_Int_Tables_number       1
loop_
_symmetry_equiv_pos_as_xyz
  x,y,z
_cell_length_a                    35.4406
_cell_length_b                    35.4406
_cell_length_c                    29.0807
_cell_angle_alpha                 90.0
_cell_angle_beta                 90.0
_cell_angle_gamma                 120.0
loop_
_atom_site_label
_atom_site_type_symbol
_atom_site_fract_x
_atom_site_fract_y
_atom_site_fract_z
Ti1     Ti     0.3333   0.1667   0.5642
Ti2     Ti     0.3333   0.6667   0.5642
Ti3     Ti     0.8333   0.1667   0.5642
Ti4     Ti     0.8333   0.6667   0.5642
Ti5     Ti     0.3333   0.1667   0.9358
Ti6     Ti     0.3333   0.6667   0.9358
Ti7     Ti     0.8333   0.1667   0.9358
Ti8     Ti     0.8333   0.6667   0.9358
Er9     Er     0.4116   0.3232   0.25
Er10     Er     0.4116   0.8232   0.25
Er11     Er     0.9116   0.3232   0.25
Er12     Er     0.9116   0.8232   0.25
Er13     Er     0.1768   0.0884   0.25
Er14     Er     0.1768   0.5884   0.25
Er15     Er     0.6768   0.0884   0.25
Er16     Er     0.6768   0.5884   0.25
Er17     Er     0.4116   0.0884   0.25
Er18     Er     0.4116   0.5884   0.25
Er19     Er     0.9116   0.0884   0.25
Er20     Er     0.9116   0.5884   0.25
Er21     Er     0.0884   0.4116   0.75
Er22     Er     0.0884   0.9116   0.75
Er23     Er     0.5884   0.4116   0.75
Er24     Er     0.5884   0.9116   0.75
Er25     Er     0.0884   0.1768   0.75
Er26     Er     0.0884   0.6768   0.75
Er27     Er     0.5884   0.1768   0.75
Er28     Er     0.5884   0.6768   0.75
Er29     Er     0.3232   0.4116   0.75
Er30     Er     0.3232   0.9116   0.75
Er31     Er     0.8232   0.4116   0.75
Er32     Er     0.8232   0.9116   0.75
V33     V     0.0   0.0   0.0
V34     V     0.0   0.5   0.0
V35     V     0.5   0.0   0.0
V36     V     0.5   0.5   0.0
V37     V     0.0   0.0   0.5
V38     V     0.0   0.5   0.5
V39     V     0.5   0.0   0.5
V40     V     0.5   0.5   0.5
Ti41     Ti     0.1667   0.3333   0.4358
Ti42     Ti     0.1667   0.8333   0.4358
Ti43     Ti     0.6667   0.3333   0.4358
Ti44     Ti     0.6667   0.8333   0.4358
Ti45     Ti     0.1667   0.3333   0.0642
Ti46     Ti     0.1667   0.8333   0.0642
Ti47     Ti     0.6667   0.3333   0.0642
Ti48     Ti     0.6667   0.8333   0.0642
loop_
_geom_bond_atom_site_label_1
_geom_bond_atom_site_label_2
_geom_bond_distance
_geom_bond_site_symmetry_2
_ccdc_geom_bond_type
Ti1     Er25    10.382   .     S
Ti1     Er29    10.382   .     S
Ti1     Er30    10.382   1_545     S
Ti1     Er22    10.382   1_545     S
Ti1     Er23    10.382   .     S
Ti1     Er27    10.382   .     S
Ti1     V39    10.4   .     S
Ti1     V37    10.4   .     S
Ti1     V40    10.4   .     S
Ti1     Ti5    10.804   .     S
Ti1     Er9    10.324   .     S
Ti1     Er13    10.324   .     S
Ti1     Er17    10.324   .     S
Ti1     Ti41    10.892   .     S
Ti1     Ti42    10.892   1_545     S
Ti1     Ti43    10.892   .     S
Ti2     Er26    10.382   .     S
Ti2     Er30    10.382   .     S
Ti2     Er29    10.382   .     S
Ti2     Er21    10.382   .     S
Ti2     Er24    10.382   .     S
Ti2     Er28    10.382   .     S
Ti2     V40    10.4   .     S
Ti2     V38    10.4   .     S
Ti2     V39    10.4   1_565     S
Ti2     Ti6    10.804   .     S
Ti2     Er10    10.324   .     S
Ti2     Er14    10.324   .     S
Ti2     Er18    10.324   .     S
Ti2     Ti42    10.892   .     S
Ti2     Ti41    10.892   .     S
Ti2     Ti44    10.892   .     S
Ti3     Er27    10.382   .     S
Ti3     Er31    10.382   .     S
Ti3     Er32    10.382   1_545     S
Ti3     Er24    10.382   1_545     S
Ti3     Er21    10.382   1_655     S
Ti3     Er25    10.382   1_655     S
Ti3     V37    10.4   1_655     S
Ti3     V39    10.4   .     S
Ti3     V38    10.4   1_655     S
Ti3     Ti7    10.804   .     S
Ti3     Er11    10.324   .     S
Ti3     Er15    10.324   .     S
Ti3     Er19    10.324   .     S
Ti3     Ti43    10.892   .     S
Ti3     Ti44    10.892   1_545     S
Ti3     Ti41    10.892   1_655     S
Ti4     Er28    10.382   .     S
Ti4     Er32    10.382   .     S
Ti4     Er31    10.382   .     S
Ti4     Er23    10.382   .     S
Ti4     Er22    10.382   1_655     S
Ti4     Er26    10.382   1_655     S
Ti4     V38    10.4   1_655     S
Ti4     V40    10.4   .     S
Ti4     V37    10.4   1_665     S
Ti4     Ti8    10.804   .     S
Ti4     Er12    10.324   .     S
Ti4     Er16    10.324   .     S
Ti4     Er20    10.324   .     S
Ti4     Ti44    10.892   .     S
Ti4     Ti43    10.892   .     S
Ti4     Ti42    10.892   1_655     S
Ti5     Er29    10.382   .     S
Ti5     Er25    10.382   .     S
Ti5     Er27    10.382   .     S
Ti5     Er23    10.382   .     S
Ti5     Er22    10.382   1_545     S
Ti5     Er30    10.382   1_545     S
Ti5     V35    10.4   1_556     S
Ti5     V33    10.4   1_556     S
Ti5     V36    10.4   1_556     S
Ti5     Er13    10.324   1_556     S
Ti5     Er9    10.324   1_556     S
Ti5     Er17    10.324   1_556     S
Ti5     Ti45    10.892   1_556     S
Ti5     Ti46    10.892   1_546     S
Ti5     Ti47    10.892   1_556     S
Ti6     Er30    10.382   .     S
Ti6     Er26    10.382   .     S
Ti6     Er28    10.382   .     S
Ti6     Er24    10.382   .     S
Ti6     Er21    10.382   .     S
Ti6     Er29    10.382   .     S
Ti6     V36    10.4   1_556     S
Ti6     V34    10.4   1_556     S
Ti6     V35    10.4   1_566     S
Ti6     Er14    10.324   1_556     S
Ti6     Er10    10.324   1_556     S
Ti6     Er18    10.324   1_556     S
Ti6     Ti46    10.892   1_556     S
Ti6     Ti45    10.892   1_556     S
Ti6     Ti48    10.892   1_556     S
Ti7     Er31    10.382   .     S
Ti7     Er27    10.382   .     S
Ti7     Er25    10.382   1_655     S
Ti7     Er21    10.382   1_655     S
Ti7     Er24    10.382   1_545     S
Ti7     Er32    10.382   1_545     S
Ti7     V33    10.4   1_656     S
Ti7     V35    10.4   1_556     S
Ti7     V34    10.4   1_656     S
Ti7     Er15    10.324   1_556     S
Ti7     Er11    10.324   1_556     S
Ti7     Er19    10.324   1_556     S
Ti7     Ti47    10.892   1_556     S
Ti7     Ti48    10.892   1_546     S
Ti7     Ti45    10.892   1_656     S
Ti8     Er32    10.382   .     S
Ti8     Er28    10.382   .     S
Ti8     Er26    10.382   1_655     S
Ti8     Er22    10.382   1_655     S
Ti8     Er23    10.382   .     S
Ti8     Er31    10.382   .     S
Ti8     V34    10.4   1_656     S
Ti8     V36    10.4   1_556     S
Ti8     V33    10.4   1_666     S
Ti8     Er16    10.324   1_556     S
Ti8     Er12    10.324   1_556     S
Ti8     Er20    10.324   1_556     S
Ti8     Ti48    10.892   1_556     S
Ti8     Ti47    10.892   1_556     S
Ti8     Ti46    10.892   1_656     S
Er9     Ti41    10.382   .     S
Er9     Ti43    10.382   .     S
Er9     Ti45    10.382   .     S
Er9     Ti47    10.382   .     S
Er9     Ti5    10.324   1_554     S
Er9     Er17    8.32   .     S
Er9     Er13    8.32   .     S
Er9     V40    9.072   .     S
Er9     V36    9.072   .     S
Er9     Er18    9.4   .     S
Er9     Er16    9.4   .     S
Er10     Ti42    10.382   .     S
Er10     Ti44    10.382   .     S
Er10     Ti46    10.382   .     S
Er10     Ti48    10.382   .     S
Er10     Ti6    10.324   1_554     S
Er10     Er18    8.32   .     S
Er10     Er14    8.32   .     S
Er10     V39    9.072   1_565     S
Er10     V35    9.072   1_565     S
Er10     Er17    9.4   1_565     S
Er10     Er15    9.4   1_565     S
Er11     Ti43    10.382   .     S
Er11     Ti41    10.382   1_655     S
Er11     Ti47    10.382   .     S
Er11     Ti45    10.382   1_655     S
Er11     Ti7    10.324   1_554     S
Er11     Er19    8.32   .     S
Er11     Er15    8.32   .     S
Er11     V38    9.072   1_655     S
Er11     V34    9.072   1_655     S
Er11     Er20    9.4   .     S
Er11     Er14    9.4   1_655     S
Er12     Ti44    10.382   .     S
Er12     Ti42    10.382   1_655     S
Er12     Ti48    10.382   .     S
Er12     Ti46    10.382   1_655     S
Er12     Ti8    10.324   1_554     S
Er12     Er20    8.32   .     S
Er12     Er16    8.32   .     S
Er12     V37    9.072   1_665     S
Er12     V33    9.072   1_665     S
Er12     Er19    9.4   1_565     S
Er12     Er13    9.4   1_665     S
Er13     Ti41    10.382   .     S
Er13     Ti42    10.382   1_545     S
Er13     Ti45    10.382   .     S
Er13     Ti46    10.382   1_545     S
Er13     Ti5    10.324   1_554     S
Er13     Er17    8.32   .     S
Er13     V37    9.072   .     S
Er13     V33    9.072   .     S
Er13     Er19    9.4   1_455     S
Er13     Er12    9.4   1_445     S
Er14     Ti42    10.382   .     S
Er14     Ti41    10.382   .     S
Er14     Ti46    10.382   .     S
Er14     Ti45    10.382   .     S
Er14     Ti6    10.324   1_554     S
Er14     Er18    8.32   .     S
Er14     V38    9.072   .     S
Er14     V34    9.072   .     S
Er14     Er20    9.4   1_455     S
Er14     Er11    9.4   1_455     S
Er15     Ti43    10.382   .     S
Er15     Ti44    10.382   1_545     S
Er15     Ti47    10.382   .     S
Er15     Ti48    10.382   1_545     S
Er15     Ti7    10.324   1_554     S
Er15     Er19    8.32   .     S
Er15     V39    9.072   .     S
Er15     V35    9.072   .     S
Er15     Er17    9.4   .     S
Er15     Er10    9.4   1_545     S
Er16     Ti44    10.382   .     S
Er16     Ti43    10.382   .     S
Er16     Ti48    10.382   .     S
Er16     Ti47    10.382   .     S
Er16     Ti8    10.324   1_554     S
Er16     Er20    8.32   .     S
Er16     V40    9.072   .     S
Er16     V36    9.072   .     S
Er16     Er18    9.4   .     S
Er17     Ti43    10.382   .     S
Er17     Ti42    10.382   1_545     S
Er17     Ti46    10.382   1_545     S
Er17     Ti47    10.382   .     S
Er17     Ti5    10.324   1_554     S
Er17     V39    9.072   .     S
Er17     V35    9.072   .     S
Er17     Er10    9.4   1_545     S
Er18     Ti44    10.382   .     S
Er18     Ti41    10.382   .     S
Er18     Ti45    10.382   .     S
Er18     Ti48    10.382   .     S
Er18     Ti6    10.324   1_554     S
Er18     V40    9.072   .     S
Er18     V36    9.072   .     S
Er19     Ti41    10.382   1_655     S
Er19     Ti44    10.382   1_545     S
Er19     Ti48    10.382   1_545     S
Er19     Ti45    10.382   1_655     S
Er19     Ti7    10.324   1_554     S
Er19     V37    9.072   1_655     S
Er19     V33    9.072   1_655     S
Er19     Er13    9.4   1_655     S
Er19     Er12    9.4   1_545     S
Er20     Ti42    10.382   1_655     S
Er20     Ti43    10.382   .     S
Er20     Ti47    10.382   .     S
Er20     Ti46    10.382   1_655     S
Er20     Ti8    10.324   1_554     S
Er20     V38    9.072   1_655     S
Er20     V34    9.072   1_655     S
Er20     Er14    9.4   1_655     S
Er21     Ti3    10.382   1_455     S
Er21     Ti7    10.382   1_455     S
Er21     Ti41    10.324   .     S
Er21     Ti45    10.324   1_556     S
Er21     Er25    8.32   .     S
Er21     Er29    8.32   .     S
Er21     V38    9.072   .     S
Er21     V34    9.072   1_556     S
Er21     Er26    9.4   .     S
Er21     Er31    9.4   1_455     S
Er22     Ti1    10.382   1_565     S
Er22     Ti4    10.382   1_455     S
Er22     Ti8    10.382   1_455     S
Er22     Ti5    10.382   1_565     S
Er22     Ti42    10.324   .     S
Er22     Ti46    10.324   1_556     S
Er22     Er26    8.32   .     S
Er22     Er30    8.32   .     S
Er22     V37    9.072   1_565     S
Er22     V33    9.072   1_566     S
Er22     Er25    9.4   1_565     S
Er22     Er32    9.4   1_455     S
Er23     Ti43    10.324   .     S
Er23     Ti47    10.324   1_556     S
Er23     Er27    8.32   .     S
Er23     Er31    8.32   .     S
Er23     V40    9.072   .     S
Er23     V36    9.072   1_556     S
Er23     Er28    9.4   .     S
Er23     Er29    9.4   .     S
Er24     Ti3    10.382   1_565     S
Er24     Ti7    10.382   1_565     S
Er24     Ti44    10.324   .     S
Er24     Ti48    10.324   1_556     S
Er24     Er28    8.32   .     S
Er24     Er32    8.32   .     S
Er24     V39    9.072   1_565     S
Er24     V35    9.072   1_566     S
Er24     Er27    9.4   1_565     S
Er24     Er30    9.4   .     S
Er25     Ti3    10.382   1_455     S
Er25     Ti7    10.382   1_455     S
Er25     Ti41    10.324   .     S
Er25     Ti45    10.324   1_556     S
Er25     Er29    8.32   .     S
Er25     V37    9.072   .     S
Er25     V33    9.072   1_556     S
Er25     Er32    9.4   1_445     S
Er25     Er22    9.4   1_545     S
Er26     Ti4    10.382   1_455     S
Er26     Ti8    10.382   1_455     S
Er26     Ti42    10.324   .     S
Er26     Ti46    10.324   1_556     S
Er26     Er30    8.32   .     S
Er26     V38    9.072   .     S
Er26     V34    9.072   1_556     S
Er26     Er31    9.4   1_455     S
Er27     Ti43    10.324   .     S
Er27     Ti47    10.324   1_556     S
Er27     Er31    8.32   .     S
Er27     V39    9.072   .     S
Er27     V35    9.072   1_556     S
Er27     Er30    9.4   1_545     S
Er27     Er24    9.4   1_545     S
Er28     Ti44    10.324   .     S
Er28     Ti48    10.324   1_556     S
Er28     Er32    8.32   .     S
Er28     V40    9.072   .     S
Er28     V36    9.072   1_556     S
Er28     Er29    9.4   .     S
Er29     Ti41    10.324   .     S
Er29     Ti45    10.324   1_556     S
Er29     V40    9.072   .     S
Er29     V36    9.072   1_556     S
Er30     Ti1    10.382   1_565     S
Er30     Ti5    10.382   1_565     S
Er30     Ti42    10.324   .     S
Er30     Ti46    10.324   1_556     S
Er30     V39    9.072   1_565     S
Er30     V35    9.072   1_566     S
Er30     Er27    9.4   1_565     S
Er31     Ti43    10.324   .     S
Er31     Ti47    10.324   1_556     S
Er31     V38    9.072   1_655     S
Er31     V34    9.072   1_656     S
Er31     Er26    9.4   1_655     S
Er31     Er21    9.4   1_655     S
Er32     Ti3    10.382   1_565     S
Er32     Ti7    10.382   1_565     S
Er32     Ti44    10.324   .     S
Er32     Ti48    10.324   1_556     S
Er32     V37    9.072   1_665     S
Er32     V33    9.072   1_666     S
Er32     Er25    9.4   1_665     S
Er32     Er22    9.4   1_655     S
V33     Ti7    10.4   1_454     S
V33     Ti5    10.4   1_554     S
V33     Ti8    10.4   1_444     S
V33     Ti46    10.4   1_545     S
V33     Ti45    10.4   .     S
V33     Ti48    10.4   1_445     S
V33     Er25    9.072   1_554     S
V33     Er19    9.072   1_455     S
V33     Er12    9.072   1_445     S
V33     Er22    9.072   1_544     S
V33     Er32    9.072   1_444     S
V34     Ti8    10.4   1_454     S
V34     Ti6    10.4   1_554     S
V34     Ti7    10.4   1_454     S
V34     Ti45    10.4   .     S
V34     Ti46    10.4   .     S
V34     Ti47    10.4   1_455     S
V34     Er26    9.072   1_554     S
V34     Er20    9.072   1_455     S
V34     Er11    9.072   1_455     S
V34     Er21    9.072   1_554     S
V34     Er31    9.072   1_454     S
V35     Ti5    10.4   1_554     S
V35     Ti7    10.4   1_554     S
V35     Ti6    10.4   1_544     S
V35     Ti48    10.4   1_545     S
V35     Ti47    10.4   .     S
V35     Ti46    10.4   1_545     S
V35     Er27    9.072   1_554     S
V35     Er10    9.072   1_545     S
V35     Er24    9.072   1_544     S
V35     Er30    9.072   1_544     S
V36     Ti6    10.4   1_554     S
V36     Ti8    10.4   1_554     S
V36     Ti5    10.4   1_554     S
V36     Ti47    10.4   .     S
V36     Ti48    10.4   .     S
V36     Ti45    10.4   .     S
V36     Er28    9.072   1_554     S
V36     Er23    9.072   1_554     S
V36     Er29    9.072   1_554     S
V37     Ti3    10.4   1_455     S
V37     Ti4    10.4   1_445     S
V37     Ti42    10.4   1_545     S
V37     Ti41    10.4   .     S
V37     Ti44    10.4   1_445     S
V37     Er22    9.072   1_545     S
V37     Er32    9.072   1_445     S
V37     Er19    9.072   1_455     S
V37     Er12    9.072   1_445     S
V38     Ti4    10.4   1_455     S
V38     Ti3    10.4   1_455     S
V38     Ti41    10.4   .     S
V38     Ti42    10.4   .     S
V38     Ti43    10.4   1_455     S
V38     Er31    9.072   1_455     S
V38     Er20    9.072   1_455     S
V38     Er11    9.072   1_455     S
V39     Ti2    10.4   1_545     S
V39     Ti44    10.4   1_545     S
V39     Ti43    10.4   .     S
V39     Ti42    10.4   1_545     S
V39     Er24    9.072   1_545     S
V39     Er30    9.072   1_545     S
V39     Er10    9.072   1_545     S
V40     Ti43    10.4   .     S
V40     Ti44    10.4   .     S
V40     Ti41    10.4   .     S
Ti41     Er11    10.382   1_455     S
Ti41     Er19    10.382   1_455     S
Ti41     Ti45    10.804   .     S
Ti41     Ti3    10.892   1_455     S
Ti42     Er12    10.382   1_455     S
Ti42     Er20    10.382   1_455     S
Ti42     Er17    10.382   1_565     S
Ti42     Er13    10.382   1_565     S
Ti42     V37    10.4   1_565     S
Ti42     V39    10.4   1_565     S
Ti42     Ti46    10.804   .     S
Ti42     Ti1    10.892   1_565     S
Ti42     Ti4    10.892   1_455     S
Ti43     V38    10.4   1_655     S
Ti43     Ti47    10.804   .     S
Ti44     Er19    10.382   1_565     S
Ti44     Er15    10.382   1_565     S
Ti44     V39    10.4   1_565     S
Ti44     V37    10.4   1_665     S
Ti44     Ti48    10.804   .     S
Ti44     Ti3    10.892   1_565     S
Ti45     Er19    10.382   1_455     S
Ti45     Er11    10.382   1_455     S
Ti45     Er21    10.324   1_554     S
Ti45     Er25    10.324   1_554     S
Ti45     Er29    10.324   1_554     S
Ti45     Ti5    10.892   1_554     S
Ti45     Ti6    10.892   1_554     S
Ti45     Ti7    10.892   1_454     S
Ti46     Er13    10.382   1_565     S
Ti46     Er17    10.382   1_565     S
Ti46     Er20    10.382   1_455     S
Ti46     Er12    10.382   1_455     S
Ti46     V33    10.4   1_565     S
Ti46     V35    10.4   1_565     S
Ti46     Er22    10.324   1_554     S
Ti46     Er26    10.324   1_554     S
Ti46     Er30    10.324   1_554     S
Ti46     Ti6    10.892   1_554     S
Ti46     Ti5    10.892   1_564     S
Ti46     Ti8    10.892   1_454     S
Ti47     V34    10.4   1_655     S
Ti47     Er23    10.324   1_554     S
Ti47     Er27    10.324   1_554     S
Ti47     Er31    10.324   1_554     S
Ti47     Ti7    10.892   1_554     S
Ti47     Ti8    10.892   1_554     S
Ti47     Ti5    10.892   1_554     S
Ti48     Er15    10.382   1_565     S
Ti48     Er19    10.382   1_565     S
Ti48     V35    10.4   1_565     S
Ti48     V33    10.4   1_665     S
Ti48     Er24    10.324   1_554     S
Ti48     Er28    10.324   1_554     S
Ti48     Er32    10.324   1_554     S
Ti48     Ti8    10.892   1_554     S
Ti48     Ti7    10.892   1_564     S
Ti48     Ti6    10.892   1_554     S
