data_mgz
_audit_creation_date              2019-12-31
_audit_creation_method            'Pymatgen'
_symmetry_space_group_name_H-M    'P1'
_symmetry_Int_Tables_number       1
loop_
_symmetry_equiv_pos_as_xyz
  x,y,z
_cell_length_a                    33.8402
_cell_length_b                    33.8402
_cell_length_c                    29.0485
_cell_angle_alpha                 90.0
_cell_angle_beta                 90.0
_cell_angle_gamma                 120.0
loop_
_atom_site_label
_atom_site_type_symbol
_atom_site_fract_x
_atom_site_fract_y
_atom_site_fract_z
Ti1     Ti     0.3333   0.1667   0.9264
Ti2     Ti     0.3333   0.6667   0.9264
Ti3     Ti     0.8333   0.1667   0.9264
Ti4     Ti     0.8333   0.6667   0.9264
Ti5     Ti     0.3333   0.1667   0.5736
Ti6     Ti     0.3333   0.6667   0.5736
Ti7     Ti     0.8333   0.1667   0.5736
Ti8     Ti     0.8333   0.6667   0.5736
Er9     Er     0.2831   0.3915   0.75
Er10     Er     0.2831   0.8915   0.75
Er11     Er     0.7831   0.3915   0.75
Er12     Er     0.7831   0.8915   0.75
Er13     Er     0.1085   0.2169   0.75
Er14     Er     0.1085   0.7169   0.75
Er15     Er     0.6085   0.2169   0.75
Er16     Er     0.6085   0.7169   0.75
Er17     Er     0.1085   0.3915   0.75
Er18     Er     0.1085   0.8915   0.75
Er19     Er     0.6085   0.3915   0.75
Er20     Er     0.6085   0.8915   0.75
Ti21     Ti     0.1667   0.3333   0.0736
Ti22     Ti     0.1667   0.8333   0.0736
Ti23     Ti     0.6667   0.3333   0.0736
Ti24     Ti     0.6667   0.8333   0.0736
Ti25     Ti     0.1667   0.3333   0.4264
Ti26     Ti     0.1667   0.8333   0.4264
Ti27     Ti     0.6667   0.3333   0.4264
Ti28     Ti     0.6667   0.8333   0.4264
Er29     Er     0.3915   0.2831   0.25
Er30     Er     0.3915   0.7831   0.25
Er31     Er     0.8915   0.2831   0.25
Er32     Er     0.8915   0.7831   0.25
Er33     Er     0.2169   0.1085   0.25
Er34     Er     0.2169   0.6085   0.25
Er35     Er     0.7169   0.1085   0.25
Er36     Er     0.7169   0.6085   0.25
Er37     Er     0.3915   0.1085   0.25
Er38     Er     0.3915   0.6085   0.25
Er39     Er     0.8915   0.1085   0.25
Er40     Er     0.8915   0.6085   0.25
V41     V     0.0   0.0   0.0
V42     V     1.0   0.5   0.0
V43     V     0.5   0.0   0.0
V44     V     0.5   0.5   0.0
V45     V     0.0   0.0   0.5
V46     V     1.0   0.5   0.5
V47     V     0.5   0.0   0.5
V48     V     0.5   0.5   0.5
loop_
_geom_bond_atom_site_label_1
_geom_bond_atom_site_label_2
_geom_bond_distance
_geom_bond_site_symmetry_2
_ccdc_geom_bond_type
Ti1     Er9    10.0   .     S
Ti1     Er13    10.0   .     S
Ti1     Er15    10.0   .     S
Ti1     Er19    10.0   .     S
Ti1     V44    10.0   1_556     S
Ti1     Er18    10.0   1_545     S
Ti1     Er10    10.0   1_545     S
Ti1     Er37    10.0   1_556     S
Ti1     Er33    10.0   1_556     S
Ti1     Er29    10.0   1_556     S
Ti1     V43    10.0   1_556     S
Ti1     V41    10.0   1_556     S
Ti2     Er10    10.0   .     S
Ti2     Er14    10.0   .     S
Ti2     Er16    10.0   .     S
Ti2     Er20    10.0   .     S
Ti2     V43    10.0   1_566     S
Ti2     Er17    10.0   .     S
Ti2     Er9    10.0   .     S
Ti2     Er38    10.0   1_556     S
Ti2     Er34    10.0   1_556     S
Ti2     Er30    10.0   1_556     S
Ti2     V44    10.0   1_556     S
Ti2     V42    10.0   1_456     S
Ti3     Er11    10.0   .     S
Ti3     Er15    10.0   .     S
Ti3     Er13    10.0   1_655     S
Ti3     Er17    10.0   1_655     S
Ti3     V42    10.0   1_556     S
Ti3     Er20    10.0   1_545     S
Ti3     Er12    10.0   1_545     S
Ti3     Er39    10.0   1_556     S
Ti3     Er35    10.0   1_556     S
Ti3     Er31    10.0   1_556     S
Ti3     V41    10.0   1_656     S
Ti3     V43    10.0   1_556     S
Ti4     Er12    10.0   .     S
Ti4     Er16    10.0   .     S
Ti4     Er14    10.0   1_655     S
Ti4     Er18    10.0   1_655     S
Ti4     V41    10.0   1_666     S
Ti4     Er19    10.0   .     S
Ti4     Er11    10.0   .     S
Ti4     Er40    10.0   1_556     S
Ti4     Er36    10.0   1_556     S
Ti4     Er32    10.0   1_556     S
Ti4     V42    10.0   1_556     S
Ti4     V44    10.0   1_556     S
Ti5     Er13    10.0   .     S
Ti5     Er9    10.0   .     S
Ti5     Er19    10.0   .     S
Ti5     Er15    10.0   .     S
Ti5     Er10    10.0   1_545     S
Ti5     Er18    10.0   1_545     S
Ti5     Er37    10.0   .     S
Ti5     Er29    10.0   .     S
Ti5     Er33    10.0   .     S
Ti5     V45    10.0   .     S
Ti5     V47    10.0   .     S
Ti5     V48    10.0   .     S
Ti6     Er14    10.0   .     S
Ti6     Er10    10.0   .     S
Ti6     Er20    10.0   .     S
Ti6     Er16    10.0   .     S
Ti6     Er9    10.0   .     S
Ti6     Er17    10.0   .     S
Ti6     Er38    10.0   .     S
Ti6     Er30    10.0   .     S
Ti6     Er34    10.0   .     S
Ti6     V46    10.0   1_455     S
Ti6     V48    10.0   .     S
Ti6     V47    10.0   1_565     S
Ti7     Er15    10.0   .     S
Ti7     Er11    10.0   .     S
Ti7     Er17    10.0   1_655     S
Ti7     Er13    10.0   1_655     S
Ti7     Er12    10.0   1_545     S
Ti7     Er20    10.0   1_545     S
Ti7     Er39    10.0   .     S
Ti7     Er31    10.0   .     S
Ti7     Er35    10.0   .     S
Ti7     V47    10.0   .     S
Ti7     V45    10.0   1_655     S
Ti7     V46    10.0   .     S
Ti8     Er16    10.0   .     S
Ti8     Er12    10.0   .     S
Ti8     Er18    10.0   1_655     S
Ti8     Er14    10.0   1_655     S
Ti8     Er11    10.0   .     S
Ti8     Er19    10.0   .     S
Ti8     Er40    10.0   .     S
Ti8     Er32    10.0   .     S
Ti8     Er36    10.0   .     S
Ti8     V48    10.0   .     S
Ti8     V46    10.0   .     S
Ti8     V45    10.0   1_665     S
Er9     Ti21    10.0   1_556     S
Er9     Ti25    10.0   .     S
Er10     Ti1    10.0   1_565     S
Er10     Ti5    10.0   1_565     S
Er10     Ti22    10.0   1_556     S
Er10     Ti26    10.0   .     S
Er11     Ti23    10.0   1_556     S
Er11     Ti27    10.0   .     S
Er12     Ti3    10.0   1_565     S
Er12     Ti7    10.0   1_565     S
Er12     Ti24    10.0   1_556     S
Er12     Ti28    10.0   .     S
Er13     Ti3    10.0   1_455     S
Er13     Ti7    10.0   1_455     S
Er13     Ti21    10.0   1_556     S
Er13     Ti25    10.0   .     S
Er14     Ti4    10.0   1_455     S
Er14     Ti8    10.0   1_455     S
Er14     Ti22    10.0   1_556     S
Er14     Ti26    10.0   .     S
Er15     Ti23    10.0   1_556     S
Er15     Ti27    10.0   .     S
Er16     Ti24    10.0   1_556     S
Er16     Ti28    10.0   .     S
Er17     Ti3    10.0   1_455     S
Er17     Ti7    10.0   1_455     S
Er17     Ti21    10.0   1_556     S
Er17     Ti25    10.0   .     S
Er18     Ti4    10.0   1_455     S
Er18     Ti1    10.0   1_565     S
Er18     Ti8    10.0   1_455     S
Er18     Ti5    10.0   1_565     S
Er18     Ti22    10.0   1_556     S
Er18     Ti26    10.0   .     S
Er19     Ti23    10.0   1_556     S
Er19     Ti27    10.0   .     S
Er20     Ti3    10.0   1_565     S
Er20     Ti7    10.0   1_565     S
Er20     Ti24    10.0   1_556     S
Er20     Ti28    10.0   .     S
Ti21     Er39    10.0   1_455     S
Ti21     Er31    10.0   1_455     S
Ti21     Er29    10.0   .     S
Ti21     Er33    10.0   .     S
Ti21     Er17    10.0   1_554     S
Ti21     Er13    10.0   1_554     S
Ti21     Er9    10.0   1_554     S
Ti21     Er34    10.0   .     S
Ti21     Er38    10.0   .     S
Ti21     V42    10.0   1_455     S
Ti21     V44    10.0   .     S
Ti21     V41    10.0   .     S
Ti22     Er40    10.0   1_455     S
Ti22     Er32    10.0   1_455     S
Ti22     Er30    10.0   .     S
Ti22     Er34    10.0   .     S
Ti22     Er18    10.0   1_554     S
Ti22     Er14    10.0   1_554     S
Ti22     Er10    10.0   1_554     S
Ti22     Er33    10.0   1_565     S
Ti22     Er37    10.0   1_565     S
Ti22     V41    10.0   1_565     S
Ti22     V43    10.0   1_565     S
Ti22     V42    10.0   1_455     S
Ti23     Er37    10.0   .     S
Ti23     Er29    10.0   .     S
Ti23     Er31    10.0   .     S
Ti23     Er35    10.0   .     S
Ti23     Er19    10.0   1_554     S
Ti23     Er15    10.0   1_554     S
Ti23     Er11    10.0   1_554     S
Ti23     Er36    10.0   .     S
Ti23     Er40    10.0   .     S
Ti23     V44    10.0   .     S
Ti23     V42    10.0   .     S
Ti23     V43    10.0   .     S
Ti24     Er38    10.0   .     S
Ti24     Er30    10.0   .     S
Ti24     Er32    10.0   .     S
Ti24     Er36    10.0   .     S
Ti24     Er20    10.0   1_554     S
Ti24     Er16    10.0   1_554     S
Ti24     Er12    10.0   1_554     S
Ti24     Er35    10.0   1_565     S
Ti24     Er39    10.0   1_565     S
Ti24     V43    10.0   1_565     S
Ti24     V41    10.0   1_665     S
Ti24     V44    10.0   .     S
Ti25     Er38    10.0   .     S
Ti25     Er34    10.0   .     S
Ti25     V48    10.0   .     S
Ti25     Er31    10.0   1_455     S
Ti25     Er39    10.0   1_455     S
Ti25     V46    10.0   1_455     S
Ti25     Er33    10.0   .     S
Ti25     Er29    10.0   .     S
Ti25     V45    10.0   .     S
Ti26     Er37    10.0   1_565     S
Ti26     Er33    10.0   1_565     S
Ti26     V47    10.0   1_565     S
Ti26     Er32    10.0   1_455     S
Ti26     Er40    10.0   1_455     S
Ti26     V45    10.0   1_565     S
Ti26     Er34    10.0   .     S
Ti26     Er30    10.0   .     S
Ti26     V46    10.0   1_455     S
Ti27     Er40    10.0   .     S
Ti27     Er36    10.0   .     S
Ti27     V46    10.0   .     S
Ti27     Er29    10.0   .     S
Ti27     Er37    10.0   .     S
Ti27     V48    10.0   .     S
Ti27     Er35    10.0   .     S
Ti27     Er31    10.0   .     S
Ti27     V47    10.0   .     S
Ti28     Er39    10.0   1_565     S
Ti28     Er35    10.0   1_565     S
Ti28     V45    10.0   1_665     S
Ti28     Er30    10.0   .     S
Ti28     Er38    10.0   .     S
Ti28     V47    10.0   1_565     S
Ti28     Er36    10.0   .     S
Ti28     Er32    10.0   .     S
Ti28     V48    10.0   .     S
Er29     Ti1    10.0   1_554     S
Er30     Ti2    10.0   1_554     S
Er31     Ti3    10.0   1_554     S
Er31     Ti21    10.0   1_655     S
Er31     Ti25    10.0   1_655     S
Er32     Ti4    10.0   1_554     S
Er32     Ti22    10.0   1_655     S
Er32     Ti26    10.0   1_655     S
Er33     Ti1    10.0   1_554     S
Er33     Ti22    10.0   1_545     S
Er33     Ti26    10.0   1_545     S
Er34     Ti2    10.0   1_554     S
Er35     Ti3    10.0   1_554     S
Er35     Ti24    10.0   1_545     S
Er35     Ti28    10.0   1_545     S
Er36     Ti4    10.0   1_554     S
Er37     Ti1    10.0   1_554     S
Er37     Ti22    10.0   1_545     S
Er37     Ti26    10.0   1_545     S
Er38     Ti2    10.0   1_554     S
Er39     Ti3    10.0   1_554     S
Er39     Ti21    10.0   1_655     S
Er39     Ti24    10.0   1_545     S
Er39     Ti28    10.0   1_545     S
Er39     Ti25    10.0   1_655     S
Er40     Ti4    10.0   1_554     S
Er40     Ti22    10.0   1_655     S
Er40     Ti26    10.0   1_655     S
V41     Ti4    10.0   1_444     S
V41     Ti3    10.0   1_454     S
V41     Ti1    10.0   1_554     S
V41     Ti22    10.0   1_545     S
V41     Ti24    10.0   1_445     S
V42     Ti3    10.0   1_554     S
V42     Ti4    10.0   1_554     S
V42     Ti2    10.0   1_654     S
V42     Ti21    10.0   1_655     S
V42     Ti22    10.0   1_655     S
V43     Ti2    10.0   1_544     S
V43     Ti1    10.0   1_554     S
V43     Ti3    10.0   1_554     S
V43     Ti24    10.0   1_545     S
V43     Ti22    10.0   1_545     S
V44     Ti1    10.0   1_554     S
V44     Ti2    10.0   1_554     S
V44     Ti4    10.0   1_554     S
V45     Ti7    10.0   1_455     S
V45     Ti8    10.0   1_445     S
V45     Ti28    10.0   1_445     S
V45     Ti26    10.0   1_545     S
V46     Ti6    10.0   1_655     S
V46     Ti25    10.0   1_655     S
V46     Ti26    10.0   1_655     S
V47     Ti6    10.0   1_545     S
V47     Ti26    10.0   1_545     S
V47     Ti28    10.0   1_545     S
