data_mhg
_audit_creation_date              2019-12-31
_audit_creation_method            'Pymatgen'
_symmetry_space_group_name_H-M    'P1'
_symmetry_Int_Tables_number       1
loop_
_symmetry_equiv_pos_as_xyz
  x,y,z
_cell_length_a                    32.4794
_cell_length_b                    32.4794
_cell_length_c                    29.9997
_cell_angle_alpha                 90.0
_cell_angle_beta                 90.0
_cell_angle_gamma                 90.0
loop_
_atom_site_label
_atom_site_type_symbol
_atom_site_fract_x
_atom_site_fract_y
_atom_site_fract_z
Er1     Er     0.7974   0.0797   0.0
Er2     Er     0.7974   0.0797   0.3333
Er3     Er     0.7974   0.0797   0.6667
Er4     Er     0.5797   0.2974   0.0
Er5     Er     0.5797   0.2974   0.3333
Er6     Er     0.5797   0.2974   0.6667
V7     V     0.5   0.0   0.0
V8     V     0.5   0.0   0.3333
V9     V     0.5   0.0   0.6667
Er10     Er     0.4203   0.7026   0.0
Er11     Er     0.4203   0.7026   0.3333
Er12     Er     0.4203   0.7026   0.6667
Er13     Er     0.2026   0.9203   0.0
Er14     Er     0.2026   0.9203   0.3333
Er15     Er     0.2026   0.9203   0.6667
Er16     Er     0.9203   0.7974   0.0
Er17     Er     0.9203   0.7974   0.3333
Er18     Er     0.9203   0.7974   0.6667
Er19     Er     0.7026   0.5797   0.0
Er20     Er     0.7026   0.5797   0.3333
Er21     Er     0.7026   0.5797   0.6667
Er22     Er     0.0797   0.2026   0.0
Er23     Er     0.0797   0.2026   0.3333
Er24     Er     0.0797   0.2026   0.6667
Er25     Er     0.2974   0.4203   0.0
Er26     Er     0.2974   0.4203   0.3333
Er27     Er     0.2974   0.4203   0.6667
V28     V     0.0   0.5   0.0
V29     V     0.0   0.5   0.3333
V30     V     0.0   0.5   0.6667
loop_
_geom_bond_atom_site_label_1
_geom_bond_atom_site_label_2
_geom_bond_distance
_geom_bond_site_symmetry_2
_ccdc_geom_bond_type
Er1     Er22    10.0   1_655     S
Er1     Er2    10.0   .     S
Er1     Er3    10.0   1_554     S
Er1     Er4    10.0   .     S
Er1     V7    10.0   .     S
Er1     Er16    10.0   1_545     S
Er2     Er23    10.0   1_655     S
Er2     Er3    10.0   .     S
Er2     Er5    10.0   .     S
Er2     V8    10.0   .     S
Er2     Er17    10.0   1_545     S
Er3     Er24    10.0   1_655     S
Er3     Er1    10.0   1_556     S
Er3     Er6    10.0   .     S
Er3     V9    10.0   .     S
Er3     Er18    10.0   1_545     S
Er4     Er19    10.0   .     S
Er4     Er5    10.0   .     S
Er4     Er6    10.0   1_554     S
Er4     V7    10.0   .     S
Er4     Er25    10.0   .     S
Er5     Er20    10.0   .     S
Er5     Er6    10.0   .     S
Er5     V8    10.0   .     S
Er5     Er26    10.0   .     S
Er6     Er21    10.0   .     S
Er6     Er4    10.0   1_556     S
Er6     V9    10.0   .     S
Er6     Er27    10.0   .     S
V7     V8    10.0   .     S
V7     V9    10.0   1_554     S
V7     Er13    10.0   1_545     S
V7     Er10    10.0   1_545     S
V8     V9    10.0   .     S
V8     Er14    10.0   1_545     S
V8     Er11    10.0   1_545     S
V9     V7    10.0   1_556     S
V9     Er15    10.0   1_545     S
V9     Er12    10.0   1_545     S
Er10     Er25    10.0   .     S
Er10     Er11    10.0   .     S
Er10     Er12    10.0   1_554     S
Er10     Er13    10.0   .     S
Er10     V7    10.0   1_565     S
Er10     Er19    10.0   .     S
Er11     Er26    10.0   .     S
Er11     Er12    10.0   .     S
Er11     Er14    10.0   .     S
Er11     V8    10.0   1_565     S
Er11     Er20    10.0   .     S
Er12     Er27    10.0   .     S
Er12     Er10    10.0   1_556     S
Er12     Er15    10.0   .     S
Er12     V9    10.0   1_565     S
Er12     Er21    10.0   .     S
Er13     Er16    10.0   1_455     S
Er13     Er14    10.0   .     S
Er13     Er15    10.0   1_554     S
Er13     V7    10.0   1_565     S
Er13     Er22    10.0   1_565     S
Er14     Er17    10.0   1_455     S
Er14     Er15    10.0   .     S
Er14     V8    10.0   1_565     S
Er14     Er23    10.0   1_565     S
Er15     Er18    10.0   1_455     S
Er15     Er13    10.0   1_556     S
Er15     V9    10.0   1_565     S
Er15     Er24    10.0   1_565     S
Er16     Er13    10.0   1_655     S
Er16     Er1    10.0   1_565     S
Er16     Er17    10.0   .     S
Er16     Er18    10.0   1_554     S
Er16     Er19    10.0   .     S
Er16     V28    10.0   1_655     S
Er17     Er14    10.0   1_655     S
Er17     Er2    10.0   1_565     S
Er17     Er18    10.0   .     S
Er17     Er20    10.0   .     S
Er17     V29    10.0   1_655     S
Er18     Er15    10.0   1_655     S
Er18     Er3    10.0   1_565     S
Er18     Er16    10.0   1_556     S
Er18     Er21    10.0   .     S
Er18     V30    10.0   1_655     S
Er19     Er20    10.0   .     S
Er19     Er21    10.0   1_554     S
Er19     V28    10.0   1_655     S
Er20     Er21    10.0   .     S
Er20     V29    10.0   1_655     S
Er21     Er19    10.0   1_556     S
Er21     V30    10.0   1_655     S
Er22     Er1    10.0   1_455     S
Er22     Er13    10.0   1_545     S
Er22     Er23    10.0   .     S
Er22     Er24    10.0   1_554     S
Er22     Er25    10.0   .     S
Er22     V28    10.0   .     S
Er23     Er2    10.0   1_455     S
Er23     Er14    10.0   1_545     S
Er23     Er24    10.0   .     S
Er23     Er26    10.0   .     S
Er23     V29    10.0   .     S
Er24     Er3    10.0   1_455     S
Er24     Er15    10.0   1_545     S
Er24     Er22    10.0   1_556     S
Er24     Er27    10.0   .     S
Er24     V30    10.0   .     S
Er25     Er26    10.0   .     S
Er25     Er27    10.0   1_554     S
Er25     V28    10.0   .     S
Er26     Er27    10.0   .     S
Er26     V29    10.0   .     S
Er27     Er25    10.0   1_556     S
Er27     V30    10.0   .     S
V28     Er19    10.0   1_455     S
V28     Er16    10.0   1_455     S
V28     V29    10.0   .     S
V28     V30    10.0   1_554     S
V29     Er20    10.0   1_455     S
V29     Er17    10.0   1_455     S
V29     V30    10.0   .     S
V30     Er21    10.0   1_455     S
V30     Er18    10.0   1_455     S
V30     V28    10.0   1_556     S
