data_mjb
_audit_creation_date              2019-12-31
_audit_creation_method            'Pymatgen'
_symmetry_space_group_name_H-M    'P1'
_symmetry_Int_Tables_number       1
loop_
_symmetry_equiv_pos_as_xyz
  x,y,z
_cell_length_a                    36.9444
_cell_length_b                    36.9444
_cell_length_c                    30.7314
_cell_angle_alpha                 90.0
_cell_angle_beta                 90.0
_cell_angle_gamma                 90.0
loop_
_atom_site_label
_atom_site_type_symbol
_atom_site_fract_x
_atom_site_fract_y
_atom_site_fract_z
V1     V     0.6353   0.0   0.0
V2     V     0.6353   0.0   0.5
Er3     Er     0.8086   0.0   0.25
Er4     Er     0.8086   0.0   0.75
Er5     Er     0.1914   0.0   0.25
Er6     Er     0.1914   0.0   0.75
V7     V     0.3647   0.0   0.0
V8     V     0.3647   0.0   0.5
V9     V     0.0   0.6353   0.0
V10     V     0.0   0.6353   0.5
Er11     Er     0.0   0.8086   0.25
Er12     Er     0.0   0.8086   0.75
V13     V     0.0   0.3647   0.0
V14     V     0.0   0.3647   0.5
Er15     Er     0.0   0.1914   0.25
Er16     Er     0.0   0.1914   0.75
loop_
_geom_bond_atom_site_label_1
_geom_bond_atom_site_label_2
_geom_bond_distance
_geom_bond_site_symmetry_2
_ccdc_geom_bond_type
V1     Er3    10.0   .     S
V1     Er4    10.0   1_554     S
V1     V7    10.0   .     S
V2     Er4    10.0   .     S
V2     Er3    10.0   .     S
V2     V8    10.0   .     S
Er3     Er15    10.0   1_655     S
Er3     Er11    10.0   1_645     S
Er4     V1    10.0   1_556     S
Er4     Er16    10.0   1_655     S
Er4     Er12    10.0   1_645     S
Er5     V7    10.0   .     S
Er5     V8    10.0   .     S
Er5     Er11    10.0   1_545     S
Er5     Er15    10.0   .     S
Er6     V8    10.0   .     S
Er6     V7    10.0   1_556     S
Er6     Er12    10.0   1_545     S
Er6     Er16    10.0   .     S
V7     Er6    10.0   1_554     S
V9     Er11    10.0   .     S
V9     Er12    10.0   1_554     S
V9     V13    10.0   .     S
V10     Er12    10.0   .     S
V10     Er11    10.0   .     S
V10     V14    10.0   .     S
Er11     Er5    10.0   1_565     S
Er11     Er3    10.0   1_465     S
Er12     Er6    10.0   1_565     S
Er12     V9    10.0   1_556     S
Er12     Er4    10.0   1_465     S
V13     Er15    10.0   .     S
V13     Er16    10.0   1_554     S
V14     Er16    10.0   .     S
V14     Er15    10.0   .     S
Er15     Er3    10.0   1_455     S
Er16     V13    10.0   1_556     S
Er16     Er4    10.0   1_455     S
