data_mjd
_audit_creation_date              2019-12-31
_audit_creation_method            'Pymatgen'
_symmetry_space_group_name_H-M    'P1'
_symmetry_Int_Tables_number       1
loop_
_symmetry_equiv_pos_as_xyz
  x,y,z
_cell_length_a                    34.8153
_cell_length_b                    34.8153
_cell_length_c                    29.4753
_cell_angle_alpha                 90.0
_cell_angle_beta                 90.0
_cell_angle_gamma                 120.0
loop_
_atom_site_label
_atom_site_type_symbol
_atom_site_fract_x
_atom_site_fract_y
_atom_site_fract_z
V1     V     0.5837   0.4163   0.2222
V2     V     0.5837   0.4163   0.5556
V3     V     0.5837   0.4163   0.8889
V4     V     0.5837   0.1674   0.0
V5     V     0.5837   0.1674   0.3333
V6     V     0.5837   0.1674   0.6667
V7     V     0.8326   0.4163   0.1111
V8     V     0.8326   0.4163   0.4444
V9     V     0.8326   0.4163   0.7778
V10     V     0.1674   0.5837   0.1111
V11     V     0.1674   0.5837   0.4444
V12     V     0.1674   0.5837   0.7778
V13     V     0.4163   0.5837   0.2222
V14     V     0.4163   0.5837   0.5556
V15     V     0.4163   0.5837   0.8889
V16     V     0.4163   0.8326   0.0
V17     V     0.4163   0.8326   0.3333
V18     V     0.4163   0.8326   0.6667
loop_
_geom_bond_atom_site_label_1
_geom_bond_atom_site_label_2
_geom_bond_distance
_geom_bond_site_symmetry_2
_ccdc_geom_bond_type
V1     V5    9.265   .     S
V1     V7    9.265   .     S
V1     V13    10.093   .     S
V1     V8    10.863   .     S
V1     V4    10.863   .     S
V1     V3    9.825   1_554     S
V1     V2    9.825   .     S
V2     V6    9.265   .     S
V2     V8    9.265   .     S
V2     V14    10.093   .     S
V2     V9    10.863   .     S
V2     V5    10.863   .     S
V2     V3    9.825   .     S
V3     V4    9.265   1_556     S
V3     V9    9.265   .     S
V3     V15    10.093   .     S
V3     V7    10.863   1_556     S
V3     V6    10.863   .     S
V3     V1    9.825   1_556     S
V4     V3    9.265   1_554     S
V4     V7    9.265   .     S
V4     V16    10.093   1_545     S
V4     V9    10.863   1_554     S
V4     V5    9.825   .     S
V4     V6    9.825   1_554     S
V5     V8    9.265   .     S
V5     V17    10.093   1_545     S
V5     V7    10.863   .     S
V5     V6    9.825   .     S
V6     V9    9.265   .     S
V6     V18    10.093   1_545     S
V6     V8    10.863   .     S
V6     V4    9.825   1_556     S
V7     V10    10.093   1_655     S
V7     V3    10.863   1_554     S
V7     V8    9.825   .     S
V7     V9    9.825   1_554     S
V8     V11    10.093   1_655     S
V8     V9    9.825   .     S
V9     V12    10.093   1_655     S
V9     V4    10.863   1_556     S
V9     V7    9.825   1_556     S
V10     V13    9.265   .     S
V10     V16    9.265   .     S
V10     V7    10.093   1_455     S
V10     V15    10.863   1_554     S
V10     V17    10.863   .     S
V10     V11    9.825   .     S
V10     V12    9.825   1_554     S
V11     V14    9.265   .     S
V11     V17    9.265   .     S
V11     V8    10.093   1_455     S
V11     V13    10.863   .     S
V11     V18    10.863   .     S
V11     V12    9.825   .     S
V12     V15    9.265   .     S
V12     V18    9.265   .     S
V12     V9    10.093   1_455     S
V12     V14    10.863   .     S
V12     V16    10.863   1_556     S
V12     V10    9.825   1_556     S
V13     V17    9.265   .     S
V13     V16    10.863   .     S
V13     V15    9.825   1_554     S
V13     V14    9.825   .     S
V14     V18    9.265   .     S
V14     V17    10.863   .     S
V14     V15    9.825   .     S
V15     V16    9.265   1_556     S
V15     V18    10.863   .     S
V15     V10    10.863   1_556     S
V15     V13    9.825   1_556     S
V16     V15    9.265   1_554     S
V16     V4    10.093   1_565     S
V16     V12    10.863   1_554     S
V16     V17    9.825   .     S
V16     V18    9.825   1_554     S
V17     V5    10.093   1_565     S
V17     V18    9.825   .     S
V18     V6    10.093   1_565     S
V18     V16    9.825   1_556     S
