data_mmg
_audit_creation_date              2019-12-31
_audit_creation_method            'Pymatgen'
_symmetry_space_group_name_H-M    'P1'
_symmetry_Int_Tables_number       1
loop_
_symmetry_equiv_pos_as_xyz
  x,y,z
_cell_length_a                    34.8058
_cell_length_b                    32.269
_cell_length_c                    21.8176
_cell_angle_alpha                 90.0
_cell_angle_beta                 90.0
_cell_angle_gamma                 90.0
loop_
_atom_site_label
_atom_site_type_symbol
_atom_site_fract_x
_atom_site_fract_y
_atom_site_fract_z
Er1     Er     0.25   0.125   0.1362
Er2     Er     0.25   0.625   0.1362
Er3     Er     0.75   0.125   0.1362
Er4     Er     0.75   0.625   0.1362
V5     V     0.25   0.375   0.406
V6     V     0.25   0.875   0.406
V7     V     0.75   0.375   0.406
V8     V     0.75   0.875   0.406
Er9     Er     0.25   0.375   0.8638
Er10     Er     0.25   0.875   0.8638
Er11     Er     0.75   0.375   0.8638
Er12     Er     0.75   0.875   0.8638
V13     V     0.25   0.125   0.594
V14     V     0.25   0.625   0.594
V15     V     0.75   0.125   0.594
V16     V     0.75   0.625   0.594
Er17     Er     0.0   0.375   0.6362
Er18     Er     0.0   0.875   0.6362
Er19     Er     0.5   0.375   0.6362
Er20     Er     0.5   0.875   0.6362
V21     V     0.0   0.125   0.906
V22     V     0.0   0.625   0.906
V23     V     0.5   0.125   0.906
V24     V     0.5   0.625   0.906
Er25     Er     0.0   0.125   0.3638
Er26     Er     0.0   0.625   0.3638
Er27     Er     0.5   0.125   0.3638
Er28     Er     0.5   0.625   0.3638
V29     V     0.0   0.375   0.094
V30     V     0.0   0.875   0.094
V31     V     0.5   0.375   0.094
V32     V     0.5   0.875   0.094
loop_
_geom_bond_atom_site_label_1
_geom_bond_atom_site_label_2
_geom_bond_distance
_geom_bond_site_symmetry_2
_ccdc_geom_bond_type
Er1     Er27    10.019   .     S
Er1     Er25    10.019   .     S
Er1     Er9    10.02   1_554     S
Er1     Er10    10.02   1_544     S
Er1     V13    9.988   .     S
Er1     V6    9.987   1_545     S
Er1     V5    9.987   .     S
Er2     Er28    10.019   .     S
Er2     Er26    10.019   .     S
Er2     Er10    10.02   1_554     S
Er2     Er9    10.02   1_554     S
Er2     V14    9.988   .     S
Er2     V5    9.987   .     S
Er2     V6    9.987   .     S
Er3     Er25    10.019   1_655     S
Er3     Er27    10.019   .     S
Er3     Er11    10.02   1_554     S
Er3     Er12    10.02   1_544     S
Er3     V15    9.988   .     S
Er3     V8    9.987   1_545     S
Er3     V7    9.987   .     S
Er4     Er26    10.019   1_655     S
Er4     Er28    10.019   .     S
Er4     Er12    10.02   1_554     S
Er4     Er11    10.02   1_554     S
Er4     V16    9.988   .     S
Er4     V7    9.987   .     S
Er4     V8    9.987   .     S
V5     Er9    9.988   .     S
V6     Er1    9.987   1_565     S
V6     Er10    9.988   .     S
V7     Er11    9.988   .     S
V8     Er3    9.987   1_565     S
V8     Er12    9.988   .     S
Er9     Er19    10.019   .     S
Er9     Er17    10.019   .     S
Er9     Er1    10.02   1_556     S
Er9     Er2    10.02   1_556     S
Er9     V13    9.987   .     S
Er9     V14    9.987   .     S
Er10     Er20    10.019   .     S
Er10     Er18    10.019   .     S
Er10     Er2    10.02   1_556     S
Er10     Er1    10.02   1_566     S
Er10     V14    9.987   .     S
Er10     V13    9.987   1_565     S
Er11     Er17    10.019   1_655     S
Er11     Er19    10.019   .     S
Er11     Er3    10.02   1_556     S
Er11     Er4    10.02   1_556     S
Er11     V15    9.987   .     S
Er11     V16    9.987   .     S
Er12     Er18    10.019   1_655     S
Er12     Er20    10.019   .     S
Er12     Er4    10.02   1_556     S
Er12     Er3    10.02   1_566     S
Er12     V16    9.987   .     S
Er12     V15    9.987   1_565     S
V13     Er10    9.987   1_545     S
V15     Er12    9.987   1_545     S
Er17     Er11    10.019   1_455     S
Er17     Er25    10.02   .     S
Er17     Er26    10.02   .     S
Er17     V29    9.988   1_556     S
Er17     V21    9.987   .     S
Er17     V22    9.987   .     S
Er18     Er12    10.019   1_455     S
Er18     Er26    10.02   .     S
Er18     Er25    10.02   1_565     S
Er18     V30    9.988   1_556     S
Er18     V22    9.987   .     S
Er18     V21    9.987   1_565     S
Er19     Er27    10.02   .     S
Er19     Er28    10.02   .     S
Er19     V31    9.988   1_556     S
Er19     V23    9.987   .     S
Er19     V24    9.987   .     S
Er20     Er28    10.02   .     S
Er20     Er27    10.02   1_565     S
Er20     V32    9.988   1_556     S
Er20     V24    9.987   .     S
Er20     V23    9.987   1_565     S
V21     Er18    9.987   1_545     S
V21     Er25    9.988   1_556     S
V22     Er26    9.988   1_556     S
V23     Er20    9.987   1_545     S
V23     Er27    9.988   1_556     S
V24     Er28    9.988   1_556     S
Er25     Er3    10.019   1_455     S
Er25     Er18    10.02   1_545     S
Er25     V21    9.988   1_554     S
Er25     V29    9.987   .     S
Er25     V30    9.987   1_545     S
Er26     Er4    10.019   1_455     S
Er26     V22    9.988   1_554     S
Er26     V30    9.987   .     S
Er26     V29    9.987   .     S
Er27     Er20    10.02   1_545     S
Er27     V23    9.988   1_554     S
Er27     V31    9.987   .     S
Er27     V32    9.987   1_545     S
Er28     V24    9.988   1_554     S
Er28     V32    9.987   .     S
Er28     V31    9.987   .     S
V29     Er17    9.988   1_554     S
V30     Er18    9.988   1_554     S
V30     Er25    9.987   1_565     S
V31     Er19    9.988   1_554     S
V32     Er20    9.988   1_554     S
V32     Er27    9.987   1_565     S
