data_mmt
_audit_creation_date              2019-12-31
_audit_creation_method            'Pymatgen'
_symmetry_space_group_name_H-M    'P1'
_symmetry_Int_Tables_number       1
loop_
_symmetry_equiv_pos_as_xyz
  x,y,z
_cell_length_a                    30.3446
_cell_length_b                    25.7144
_cell_length_c                    27.8952
_cell_angle_alpha                 90.0
_cell_angle_beta                 90.0
_cell_angle_gamma                 90.0
loop_
_atom_site_label
_atom_site_type_symbol
_atom_site_fract_x
_atom_site_fract_y
_atom_site_fract_z
V1     V     0.4358   0.0693   0.1522
V2     V     0.9358   0.0693   0.1522
V3     V     0.1858   0.9307   0.3478
V4     V     0.6858   0.9307   0.3478
V5     V     0.3142   0.0693   0.6522
V6     V     0.8142   0.0693   0.6522
V7     V     0.0642   0.9307   0.8478
V8     V     0.5642   0.9307   0.8478
V9     V     0.4358   0.4307   0.6522
V10     V     0.9358   0.4307   0.6522
V11     V     0.1858   0.5693   0.8478
V12     V     0.6858   0.5693   0.8478
V13     V     0.0642   0.5693   0.3478
V14     V     0.5642   0.5693   0.3478
V15     V     0.3142   0.4307   0.1522
V16     V     0.8142   0.4307   0.1522
loop_
_geom_bond_atom_site_label_1
_geom_bond_atom_site_label_2
_geom_bond_distance
_geom_bond_site_symmetry_2
_ccdc_geom_bond_type
V1     V4    10.0   1_545     S
V1     V3    10.0   1_545     S
V1     V8    10.0   1_544     S
V1     V15    10.0   .     S
V2     V3    10.0   1_645     S
V2     V4    10.0   1_545     S
V2     V7    10.0   1_644     S
V2     V16    10.0   .     S
V3     V2    10.0   1_465     S
V3     V1    10.0   1_565     S
V3     V5    10.0   1_565     S
V3     V13    10.0   .     S
V4     V1    10.0   1_565     S
V4     V2    10.0   1_565     S
V4     V6    10.0   1_565     S
V4     V14    10.0   .     S
V5     V7    10.0   1_545     S
V5     V8    10.0   1_545     S
V5     V3    10.0   1_545     S
V5     V9    10.0   .     S
V6     V8    10.0   1_545     S
V6     V7    10.0   1_645     S
V6     V4    10.0   1_545     S
V6     V10    10.0   .     S
V7     V5    10.0   1_565     S
V7     V6    10.0   1_465     S
V7     V2    10.0   1_466     S
V7     V11    10.0   .     S
V8     V6    10.0   1_565     S
V8     V5    10.0   1_565     S
V8     V1    10.0   1_566     S
V8     V12    10.0   .     S
V9     V12    10.0   .     S
V9     V11    10.0   .     S
V9     V14    10.0   .     S
V10     V11    10.0   1_655     S
V10     V12    10.0   .     S
V10     V13    10.0   1_655     S
V11     V10    10.0   1_455     S
V11     V15    10.0   1_556     S
V12     V16    10.0   1_556     S
V13     V16    10.0   1_455     S
V13     V15    10.0   .     S
V13     V10    10.0   1_455     S
V14     V15    10.0   .     S
V14     V16    10.0   .     S
V15     V11    10.0   1_554     S
V16     V13    10.0   1_655     S
V16     V12    10.0   1_554     S
