data_moa
_audit_creation_date              2019-12-31
_audit_creation_method            'Pymatgen'
_symmetry_space_group_name_H-M    'P1'
_symmetry_Int_Tables_number       1
loop_
_symmetry_equiv_pos_as_xyz
  x,y,z
_cell_length_a                    37.8106
_cell_length_b                    53.7291
_cell_length_c                    24.6628
_cell_angle_alpha                 90.0
_cell_angle_beta                 90.0
_cell_angle_gamma                 90.0
loop_
_atom_site_label
_atom_site_type_symbol
_atom_site_fract_x
_atom_site_fract_y
_atom_site_fract_z
Er1     Er     0.0   0.7196   0.5
Er2     Er     0.5   0.7196   0.5
Er3     Er     0.25   0.7804   0.5
Er4     Er     0.75   0.7804   0.5
V5     V     0.25   0.9069   0.7973
V6     V     0.75   0.9069   0.7973
V7     V     0.25   0.0931   0.7973
V8     V     0.75   0.0931   0.7973
V9     V     0.0   0.5931   0.2027
V10     V     0.5   0.5931   0.2027
V11     V     0.0   0.4069   0.2027
V12     V     0.5   0.4069   0.2027
V13     V     0.25   0.9069   0.2027
V14     V     0.75   0.9069   0.2027
V15     V     0.25   0.0931   0.2027
V16     V     0.75   0.0931   0.2027
Er17     Er     0.0   0.2804   0.5
Er18     Er     0.5   0.2804   0.5
Er19     Er     0.25   0.2196   0.5
Er20     Er     0.75   0.2196   0.5
V21     V     0.0   0.5931   0.7973
V22     V     0.5   0.5931   0.7973
V23     V     0.0   0.4069   0.7973
V24     V     0.5   0.4069   0.7973
loop_
_geom_bond_atom_site_label_1
_geom_bond_atom_site_label_2
_geom_bond_distance
_geom_bond_site_symmetry_2
_ccdc_geom_bond_type
Er1     Er4    10.0   1_455     S
Er1     Er3    10.0   .     S
Er1     V9    10.0   .     S
Er1     V21    10.0   .     S
Er2     Er3    10.0   .     S
Er2     Er4    10.0   .     S
Er2     V10    10.0   .     S
Er2     V22    10.0   .     S
Er3     V13    10.0   .     S
Er3     V5    10.0   .     S
Er4     Er1    10.0   1_655     S
Er4     V14    10.0   .     S
Er4     V6    10.0   .     S
V5     V7    10.0   1_565     S
V5     V13    10.0   1_556     S
V6     V8    10.0   1_565     S
V6     V14    10.0   1_556     S
V7     V5    10.0   1_545     S
V7     Er19    10.0   .     S
V7     V15    10.0   1_556     S
V8     V6    10.0   1_545     S
V8     Er20    10.0   .     S
V8     V16    10.0   1_556     S
V9     V11    10.0   .     S
V9     V21    10.0   1_554     S
V10     V12    10.0   .     S
V10     V22    10.0   1_554     S
V11     Er17    10.0   .     S
V11     V23    10.0   1_554     S
V12     Er18    10.0   .     S
V12     V24    10.0   1_554     S
V13     V15    10.0   1_565     S
V13     V5    10.0   1_554     S
V14     V16    10.0   1_565     S
V14     V6    10.0   1_554     S
V15     V13    10.0   1_545     S
V15     Er19    10.0   .     S
V15     V7    10.0   1_554     S
V16     V14    10.0   1_545     S
V16     Er20    10.0   .     S
V16     V8    10.0   1_554     S
Er17     Er20    10.0   1_455     S
Er17     Er19    10.0   .     S
Er17     V23    10.0   .     S
Er18     Er19    10.0   .     S
Er18     Er20    10.0   .     S
Er18     V24    10.0   .     S
Er20     Er17    10.0   1_655     S
V21     V23    10.0   .     S
V21     V9    10.0   1_556     S
V22     V24    10.0   .     S
V22     V10    10.0   1_556     S
V23     V11    10.0   1_556     S
V24     V12    10.0   1_556     S
