data_mob
_audit_creation_date              2019-12-31
_audit_creation_method            'Pymatgen'
_symmetry_space_group_name_H-M    'P1'
_symmetry_Int_Tables_number       1
loop_
_symmetry_equiv_pos_as_xyz
  x,y,z
_cell_length_a                    30.0003
_cell_length_b                    30.0003
_cell_length_c                    62.9247
_cell_angle_alpha                 90.0
_cell_angle_beta                 90.0
_cell_angle_gamma                 90.0
loop_
_atom_site_label
_atom_site_type_symbol
_atom_site_fract_x
_atom_site_fract_y
_atom_site_fract_z
V1     V     0.0   0.0833   0.6812
V2     V     0.0   0.4167   0.6812
V3     V     0.0   0.75   0.6812
V4     V     0.3333   0.0833   0.6812
V5     V     0.3333   0.4167   0.6812
V6     V     0.3333   0.75   0.6812
V7     V     0.6667   0.0833   0.6812
V8     V     0.6667   0.4167   0.6812
V9     V     0.6667   0.75   0.6812
V10     V     0.1667   0.0833   0.8188
V11     V     0.1667   0.4167   0.8188
V12     V     0.1667   0.75   0.8188
V13     V     0.5   0.0833   0.8188
V14     V     0.5   0.4167   0.8188
V15     V     0.5   0.75   0.8188
V16     V     0.8333   0.0833   0.8188
V17     V     0.8333   0.4167   0.8188
V18     V     0.8333   0.75   0.8188
V19     V     0.1667   0.0833   0.4312
V20     V     0.1667   0.4167   0.4312
V21     V     0.1667   0.75   0.4312
V22     V     0.5   0.0833   0.4312
V23     V     0.5   0.4167   0.4312
V24     V     0.5   0.75   0.4312
V25     V     0.8333   0.0833   0.4312
V26     V     0.8333   0.4167   0.4312
V27     V     0.8333   0.75   0.4312
V28     V     0.1667   0.25   0.5688
V29     V     0.1667   0.5833   0.5688
V30     V     0.1667   0.9167   0.5688
V31     V     0.5   0.25   0.5688
V32     V     0.5   0.5833   0.5688
V33     V     0.5   0.9167   0.5688
V34     V     0.8333   0.25   0.5688
V35     V     0.8333   0.5833   0.5688
V36     V     0.8333   0.9167   0.5688
V37     V     0.0   0.25   0.3188
V38     V     0.0   0.5833   0.3188
V39     V     0.0   0.9167   0.3188
V40     V     0.3333   0.25   0.3188
V41     V     0.3333   0.5833   0.3188
V42     V     0.3333   0.9167   0.3188
V43     V     0.6667   0.25   0.3188
V44     V     0.6667   0.5833   0.3188
V45     V     0.6667   0.9167   0.3188
V46     V     0.1667   0.25   0.1812
V47     V     0.1667   0.5833   0.1812
V48     V     0.1667   0.9167   0.1812
V49     V     0.5   0.25   0.1812
V50     V     0.5   0.5833   0.1812
V51     V     0.5   0.9167   0.1812
V52     V     0.8333   0.25   0.1812
V53     V     0.8333   0.5833   0.1812
V54     V     0.8333   0.9167   0.1812
V55     V     0.0   0.0833   0.0688
V56     V     0.0   0.4167   0.0688
V57     V     0.0   0.75   0.0688
V58     V     0.3333   0.0833   0.0688
V59     V     0.3333   0.4167   0.0688
V60     V     0.3333   0.75   0.0688
V61     V     0.6667   0.0833   0.0688
V62     V     0.6667   0.4167   0.0688
V63     V     0.6667   0.75   0.0688
V64     V     0.0   0.25   0.9312
V65     V     0.0   0.5833   0.9312
V66     V     0.0   0.9167   0.9312
V67     V     0.3333   0.25   0.9312
V68     V     0.3333   0.5833   0.9312
V69     V     0.3333   0.9167   0.9312
V70     V     0.6667   0.25   0.9312
V71     V     0.6667   0.5833   0.9312
V72     V     0.6667   0.9167   0.9312
loop_
_geom_bond_atom_site_label_1
_geom_bond_atom_site_label_2
_geom_bond_distance
_geom_bond_site_symmetry_2
_ccdc_geom_bond_type
V1     V30    10.0   1_545     S
V1     V36    10.0   1_445     S
V1     V34    10.0   1_455     S
V1     V28    10.0   .     S
V1     V16    10.0   1_455     S
V1     V10    10.0   .     S
V1     V4    10.0   .     S
V1     V7    10.0   1_455     S
V1     V2    10.0   .     S
V1     V3    10.0   1_545     S
V2     V28    10.0   .     S
V2     V34    10.0   1_455     S
V2     V35    10.0   1_455     S
V2     V29    10.0   .     S
V2     V17    10.0   1_455     S
V2     V11    10.0   .     S
V2     V5    10.0   .     S
V2     V8    10.0   1_455     S
V2     V3    10.0   .     S
V3     V29    10.0   .     S
V3     V35    10.0   1_455     S
V3     V36    10.0   1_455     S
V3     V30    10.0   .     S
V3     V18    10.0   1_455     S
V3     V12    10.0   .     S
V3     V6    10.0   .     S
V3     V9    10.0   1_455     S
V3     V1    10.0   1_565     S
V4     V33    10.0   1_545     S
V4     V30    10.0   1_545     S
V4     V28    10.0   .     S
V4     V31    10.0   .     S
V4     V10    10.0   .     S
V4     V13    10.0   .     S
V4     V7    10.0   .     S
V4     V5    10.0   .     S
V4     V6    10.0   1_545     S
V5     V31    10.0   .     S
V5     V28    10.0   .     S
V5     V29    10.0   .     S
V5     V32    10.0   .     S
V5     V11    10.0   .     S
V5     V14    10.0   .     S
V5     V8    10.0   .     S
V5     V6    10.0   .     S
V6     V32    10.0   .     S
V6     V29    10.0   .     S
V6     V30    10.0   .     S
V6     V33    10.0   .     S
V6     V12    10.0   .     S
V6     V15    10.0   .     S
V6     V9    10.0   .     S
V6     V4    10.0   1_565     S
V7     V36    10.0   1_545     S
V7     V33    10.0   1_545     S
V7     V31    10.0   .     S
V7     V34    10.0   .     S
V7     V13    10.0   .     S
V7     V16    10.0   .     S
V7     V1    10.0   1_655     S
V7     V8    10.0   .     S
V7     V9    10.0   1_545     S
V8     V34    10.0   .     S
V8     V31    10.0   .     S
V8     V32    10.0   .     S
V8     V35    10.0   .     S
V8     V14    10.0   .     S
V8     V17    10.0   .     S
V8     V2    10.0   1_655     S
V8     V9    10.0   .     S
V9     V35    10.0   .     S
V9     V32    10.0   .     S
V9     V33    10.0   .     S
V9     V36    10.0   .     S
V9     V15    10.0   .     S
V9     V18    10.0   .     S
V9     V3    10.0   1_655     S
V9     V7    10.0   1_565     S
V10     V66    10.0   1_545     S
V10     V69    10.0   1_545     S
V10     V67    10.0   .     S
V10     V64    10.0   .     S
V10     V16    10.0   1_455     S
V10     V13    10.0   .     S
V10     V11    10.0   .     S
V10     V12    10.0   1_545     S
V11     V64    10.0   .     S
V11     V67    10.0   .     S
V11     V68    10.0   .     S
V11     V65    10.0   .     S
V11     V17    10.0   1_455     S
V11     V14    10.0   .     S
V11     V12    10.0   .     S
V12     V65    10.0   .     S
V12     V68    10.0   .     S
V12     V69    10.0   .     S
V12     V66    10.0   .     S
V12     V18    10.0   1_455     S
V12     V15    10.0   .     S
V12     V10    10.0   1_565     S
V13     V69    10.0   1_545     S
V13     V72    10.0   1_545     S
V13     V70    10.0   .     S
V13     V67    10.0   .     S
V13     V16    10.0   .     S
V13     V14    10.0   .     S
V13     V15    10.0   1_545     S
V14     V67    10.0   .     S
V14     V70    10.0   .     S
V14     V71    10.0   .     S
V14     V68    10.0   .     S
V14     V17    10.0   .     S
V14     V15    10.0   .     S
V15     V68    10.0   .     S
V15     V71    10.0   .     S
V15     V72    10.0   .     S
V15     V69    10.0   .     S
V15     V18    10.0   .     S
V15     V13    10.0   1_565     S
V16     V72    10.0   1_545     S
V16     V66    10.0   1_645     S
V16     V64    10.0   1_655     S
V16     V70    10.0   .     S
V16     V1    10.0   1_655     S
V16     V10    10.0   1_655     S
V16     V17    10.0   .     S
V16     V18    10.0   1_545     S
V17     V70    10.0   .     S
V17     V64    10.0   1_655     S
V17     V65    10.0   1_655     S
V17     V71    10.0   .     S
V17     V2    10.0   1_655     S
V17     V11    10.0   1_655     S
V17     V18    10.0   .     S
V18     V71    10.0   .     S
V18     V65    10.0   1_655     S
V18     V66    10.0   1_655     S
V18     V72    10.0   .     S
V18     V3    10.0   1_655     S
V18     V12    10.0   1_655     S
V18     V16    10.0   1_565     S
V19     V28    10.0   .     S
V19     V30    10.0   1_545     S
V19     V20    10.0   .     S
V19     V21    10.0   1_545     S
V19     V25    10.0   1_455     S
V19     V22    10.0   .     S
V19     V39    10.0   1_545     S
V19     V42    10.0   1_545     S
V19     V40    10.0   .     S
V19     V37    10.0   .     S
V20     V29    10.0   .     S
V20     V28    10.0   .     S
V20     V21    10.0   .     S
V20     V26    10.0   1_455     S
V20     V23    10.0   .     S
V20     V37    10.0   .     S
V20     V40    10.0   .     S
V20     V41    10.0   .     S
V20     V38    10.0   .     S
V21     V30    10.0   .     S
V21     V29    10.0   .     S
V21     V19    10.0   1_565     S
V21     V27    10.0   1_455     S
V21     V24    10.0   .     S
V21     V38    10.0   .     S
V21     V41    10.0   .     S
V21     V42    10.0   .     S
V21     V39    10.0   .     S
V22     V31    10.0   .     S
V22     V33    10.0   1_545     S
V22     V23    10.0   .     S
V22     V24    10.0   1_545     S
V22     V25    10.0   .     S
V22     V42    10.0   1_545     S
V22     V45    10.0   1_545     S
V22     V43    10.0   .     S
V22     V40    10.0   .     S
V23     V32    10.0   .     S
V23     V31    10.0   .     S
V23     V24    10.0   .     S
V23     V26    10.0   .     S
V23     V40    10.0   .     S
V23     V43    10.0   .     S
V23     V44    10.0   .     S
V23     V41    10.0   .     S
V24     V33    10.0   .     S
V24     V32    10.0   .     S
V24     V22    10.0   1_565     S
V24     V27    10.0   .     S
V24     V41    10.0   .     S
V24     V44    10.0   .     S
V24     V45    10.0   .     S
V24     V42    10.0   .     S
V25     V34    10.0   .     S
V25     V36    10.0   1_545     S
V25     V26    10.0   .     S
V25     V27    10.0   1_545     S
V25     V19    10.0   1_655     S
V25     V45    10.0   1_545     S
V25     V39    10.0   1_645     S
V25     V37    10.0   1_655     S
V25     V43    10.0   .     S
V26     V35    10.0   .     S
V26     V34    10.0   .     S
V26     V27    10.0   .     S
V26     V20    10.0   1_655     S
V26     V43    10.0   .     S
V26     V37    10.0   1_655     S
V26     V38    10.0   1_655     S
V26     V44    10.0   .     S
V27     V36    10.0   .     S
V27     V35    10.0   .     S
V27     V25    10.0   1_565     S
V27     V21    10.0   1_655     S
V27     V44    10.0   .     S
V27     V38    10.0   1_655     S
V27     V39    10.0   1_655     S
V27     V45    10.0   .     S
V28     V30    10.0   1_545     S
V28     V29    10.0   .     S
V28     V34    10.0   1_455     S
V28     V31    10.0   .     S
V29     V30    10.0   .     S
V29     V35    10.0   1_455     S
V29     V32    10.0   .     S
V30     V1    10.0   1_565     S
V30     V4    10.0   1_565     S
V30     V19    10.0   1_565     S
V30     V28    10.0   1_565     S
V30     V36    10.0   1_455     S
V30     V33    10.0   .     S
V31     V33    10.0   1_545     S
V31     V32    10.0   .     S
V31     V34    10.0   .     S
V32     V33    10.0   .     S
V32     V35    10.0   .     S
V33     V4    10.0   1_565     S
V33     V7    10.0   1_565     S
V33     V22    10.0   1_565     S
V33     V31    10.0   1_565     S
V33     V36    10.0   .     S
V34     V2    10.0   1_655     S
V34     V1    10.0   1_655     S
V34     V36    10.0   1_545     S
V34     V35    10.0   .     S
V34     V28    10.0   1_655     S
V35     V3    10.0   1_655     S
V35     V2    10.0   1_655     S
V35     V36    10.0   .     S
V35     V29    10.0   1_655     S
V36     V7    10.0   1_565     S
V36     V1    10.0   1_665     S
V36     V3    10.0   1_655     S
V36     V25    10.0   1_565     S
V36     V34    10.0   1_565     S
V36     V30    10.0   1_655     S
V37     V26    10.0   1_455     S
V37     V25    10.0   1_455     S
V37     V52    10.0   1_455     S
V37     V46    10.0   .     S
V37     V40    10.0   .     S
V37     V43    10.0   1_455     S
V37     V39    10.0   1_545     S
V37     V38    10.0   .     S
V38     V27    10.0   1_455     S
V38     V26    10.0   1_455     S
V38     V53    10.0   1_455     S
V38     V47    10.0   .     S
V38     V41    10.0   .     S
V38     V44    10.0   1_455     S
V38     V39    10.0   .     S
V39     V19    10.0   1_565     S
V39     V25    10.0   1_465     S
V39     V27    10.0   1_455     S
V39     V54    10.0   1_455     S
V39     V48    10.0   .     S
V39     V42    10.0   .     S
V39     V45    10.0   1_455     S
V39     V37    10.0   1_565     S
V40     V46    10.0   .     S
V40     V49    10.0   .     S
V40     V43    10.0   .     S
V40     V42    10.0   1_545     S
V40     V41    10.0   .     S
V41     V47    10.0   .     S
V41     V50    10.0   .     S
V41     V44    10.0   .     S
V41     V42    10.0   .     S
V42     V22    10.0   1_565     S
V42     V19    10.0   1_565     S
V42     V48    10.0   .     S
V42     V51    10.0   .     S
V42     V45    10.0   .     S
V42     V40    10.0   1_565     S
V43     V49    10.0   .     S
V43     V52    10.0   .     S
V43     V37    10.0   1_655     S
V43     V45    10.0   1_545     S
V43     V44    10.0   .     S
V44     V50    10.0   .     S
V44     V53    10.0   .     S
V44     V38    10.0   1_655     S
V44     V45    10.0   .     S
V45     V25    10.0   1_565     S
V45     V22    10.0   1_565     S
V45     V51    10.0   .     S
V45     V54    10.0   .     S
V45     V39    10.0   1_655     S
V45     V43    10.0   1_565     S
V46     V52    10.0   1_455     S
V46     V49    10.0   .     S
V46     V48    10.0   1_545     S
V46     V47    10.0   .     S
V46     V56    10.0   .     S
V46     V59    10.0   .     S
V46     V58    10.0   .     S
V46     V55    10.0   .     S
V47     V53    10.0   1_455     S
V47     V50    10.0   .     S
V47     V48    10.0   .     S
V47     V57    10.0   .     S
V47     V60    10.0   .     S
V47     V59    10.0   .     S
V47     V56    10.0   .     S
V48     V54    10.0   1_455     S
V48     V51    10.0   .     S
V48     V46    10.0   1_565     S
V48     V55    10.0   1_565     S
V48     V58    10.0   1_565     S
V48     V60    10.0   .     S
V48     V57    10.0   .     S
V49     V52    10.0   .     S
V49     V51    10.0   1_545     S
V49     V50    10.0   .     S
V49     V59    10.0   .     S
V49     V62    10.0   .     S
V49     V61    10.0   .     S
V49     V58    10.0   .     S
V50     V53    10.0   .     S
V50     V51    10.0   .     S
V50     V60    10.0   .     S
V50     V63    10.0   .     S
V50     V62    10.0   .     S
V50     V59    10.0   .     S
V51     V54    10.0   .     S
V51     V49    10.0   1_565     S
V51     V58    10.0   1_565     S
V51     V61    10.0   1_565     S
V51     V63    10.0   .     S
V51     V60    10.0   .     S
V52     V37    10.0   1_655     S
V52     V46    10.0   1_655     S
V52     V54    10.0   1_545     S
V52     V53    10.0   .     S
V52     V62    10.0   .     S
V52     V56    10.0   1_655     S
V52     V55    10.0   1_655     S
V52     V61    10.0   .     S
V53     V38    10.0   1_655     S
V53     V47    10.0   1_655     S
V53     V54    10.0   .     S
V53     V63    10.0   .     S
V53     V57    10.0   1_655     S
V53     V56    10.0   1_655     S
V53     V62    10.0   .     S
V54     V39    10.0   1_655     S
V54     V48    10.0   1_655     S
V54     V52    10.0   1_565     S
V54     V61    10.0   1_565     S
V54     V55    10.0   1_665     S
V54     V57    10.0   1_655     S
V54     V63    10.0   .     S
V55     V64    10.0   1_554     S
V55     V66    10.0   1_544     S
V55     V56    10.0   .     S
V55     V57    10.0   1_545     S
V55     V58    10.0   .     S
V55     V61    10.0   1_455     S
V55     V48    10.0   1_545     S
V55     V54    10.0   1_445     S
V55     V52    10.0   1_455     S
V56     V65    10.0   1_554     S
V56     V64    10.0   1_554     S
V56     V57    10.0   .     S
V56     V59    10.0   .     S
V56     V62    10.0   1_455     S
V56     V52    10.0   1_455     S
V56     V53    10.0   1_455     S
V57     V66    10.0   1_554     S
V57     V65    10.0   1_554     S
V57     V55    10.0   1_565     S
V57     V60    10.0   .     S
V57     V63    10.0   1_455     S
V57     V53    10.0   1_455     S
V57     V54    10.0   1_455     S
V58     V67    10.0   1_554     S
V58     V69    10.0   1_544     S
V58     V59    10.0   .     S
V58     V60    10.0   1_545     S
V58     V61    10.0   .     S
V58     V51    10.0   1_545     S
V58     V48    10.0   1_545     S
V59     V68    10.0   1_554     S
V59     V67    10.0   1_554     S
V59     V60    10.0   .     S
V59     V62    10.0   .     S
V60     V69    10.0   1_554     S
V60     V68    10.0   1_554     S
V60     V58    10.0   1_565     S
V60     V63    10.0   .     S
V61     V70    10.0   1_554     S
V61     V72    10.0   1_544     S
V61     V62    10.0   .     S
V61     V63    10.0   1_545     S
V61     V55    10.0   1_655     S
V61     V54    10.0   1_545     S
V61     V51    10.0   1_545     S
V62     V71    10.0   1_554     S
V62     V70    10.0   1_554     S
V62     V63    10.0   .     S
V62     V56    10.0   1_655     S
V63     V72    10.0   1_554     S
V63     V71    10.0   1_554     S
V63     V61    10.0   1_565     S
V63     V57    10.0   1_655     S
V64     V17    10.0   1_455     S
V64     V16    10.0   1_455     S
V64     V55    10.0   1_556     S
V64     V56    10.0   1_556     S
V64     V66    10.0   1_545     S
V64     V65    10.0   .     S
V64     V67    10.0   .     S
V64     V70    10.0   1_455     S
V65     V18    10.0   1_455     S
V65     V17    10.0   1_455     S
V65     V56    10.0   1_556     S
V65     V57    10.0   1_556     S
V65     V66    10.0   .     S
V65     V68    10.0   .     S
V65     V71    10.0   1_455     S
V66     V10    10.0   1_565     S
V66     V16    10.0   1_465     S
V66     V18    10.0   1_455     S
V66     V57    10.0   1_556     S
V66     V55    10.0   1_566     S
V66     V64    10.0   1_565     S
V66     V69    10.0   .     S
V66     V72    10.0   1_455     S
V67     V58    10.0   1_556     S
V67     V59    10.0   1_556     S
V67     V69    10.0   1_545     S
V67     V68    10.0   .     S
V67     V70    10.0   .     S
V68     V59    10.0   1_556     S
V68     V60    10.0   1_556     S
V68     V69    10.0   .     S
V68     V71    10.0   .     S
V69     V13    10.0   1_565     S
V69     V10    10.0   1_565     S
V69     V60    10.0   1_556     S
V69     V58    10.0   1_566     S
V69     V67    10.0   1_565     S
V69     V72    10.0   .     S
V70     V61    10.0   1_556     S
V70     V62    10.0   1_556     S
V70     V72    10.0   1_545     S
V70     V71    10.0   .     S
V70     V64    10.0   1_655     S
V71     V62    10.0   1_556     S
V71     V63    10.0   1_556     S
V71     V72    10.0   .     S
V71     V65    10.0   1_655     S
V72     V16    10.0   1_565     S
V72     V13    10.0   1_565     S
V72     V63    10.0   1_556     S
V72     V61    10.0   1_566     S
V72     V70    10.0   1_565     S
V72     V66    10.0   1_655     S
