data_mog-e
_audit_creation_date              2019-12-31
_audit_creation_method            'Pymatgen'
_symmetry_space_group_name_H-M    'P1'
_symmetry_Int_Tables_number       1
loop_
_symmetry_equiv_pos_as_xyz
  x,y,z
_cell_length_a                    48.2848
_cell_length_b                    39.9996
_cell_length_c                    39.9998
_cell_angle_alpha                 90.0
_cell_angle_beta                 90.0
_cell_angle_gamma                 90.0
loop_
_atom_site_label
_atom_site_type_symbol
_atom_site_fract_x
_atom_site_fract_y
_atom_site_fract_z
Er1     Er     0.25   0.125   0.0
Er2     Er     0.25   0.125   0.5
Er3     Er     0.25   0.625   0.0
Er4     Er     0.25   0.625   0.5
Er5     Er     0.25   0.375   0.0
Er6     Er     0.25   0.375   0.5
Er7     Er     0.25   0.875   0.0
Er8     Er     0.25   0.875   0.5
V9     V     0.1036   0.25   0.375
V10     V     0.1036   0.25   0.875
V11     V     0.1036   0.75   0.375
V12     V     0.1036   0.75   0.875
V13     V     0.8964   0.25   0.375
V14     V     0.8964   0.25   0.875
V15     V     0.8964   0.75   0.375
V16     V     0.8964   0.75   0.875
V17     V     0.1036   0.25   0.125
V18     V     0.1036   0.25   0.625
V19     V     0.1036   0.75   0.125
V20     V     0.1036   0.75   0.625
V21     V     0.8964   0.25   0.125
V22     V     0.8964   0.25   0.625
V23     V     0.8964   0.75   0.125
V24     V     0.8964   0.75   0.625
Er25     Er     0.75   0.125   0.0
Er26     Er     0.75   0.125   0.5
Er27     Er     0.75   0.625   0.0
Er28     Er     0.75   0.625   0.5
Er29     Er     0.75   0.375   0.0
Er30     Er     0.75   0.375   0.5
Er31     Er     0.75   0.875   0.0
Er32     Er     0.75   0.875   0.5
V33     V     0.3965   0.0   0.375
V34     V     0.3965   0.0   0.875
V35     V     0.3965   0.5   0.375
V36     V     0.3965   0.5   0.875
V37     V     0.6036   0.0   0.375
V38     V     0.6036   0.0   0.875
V39     V     0.6036   0.5   0.375
V40     V     0.6036   0.5   0.875
V41     V     0.3965   0.0   0.125
V42     V     0.3965   0.0   0.625
V43     V     0.3965   0.5   0.125
V44     V     0.3965   0.5   0.625
V45     V     0.6036   0.0   0.125
V46     V     0.6036   0.0   0.625
V47     V     0.6036   0.5   0.125
V48     V     0.6036   0.5   0.625
loop_
_geom_bond_atom_site_label_1
_geom_bond_atom_site_label_2
_geom_bond_distance
_geom_bond_site_symmetry_2
_ccdc_geom_bond_type
Er1     Er5    10.0   .     S
Er1     V17    10.0   .     S
Er1     V41    10.0   .     S
Er1     Er7    10.0   1_545     S
Er1     V34    10.0   1_554     S
Er1     V10    10.0   1_554     S
Er2     Er6    10.0   .     S
Er2     V18    10.0   .     S
Er2     V42    10.0   .     S
Er2     Er8    10.0   1_545     S
Er2     V33    10.0   .     S
Er2     V9    10.0   .     S
Er3     Er7    10.0   .     S
Er3     V19    10.0   .     S
Er3     V43    10.0   .     S
Er3     Er5    10.0   .     S
Er3     V36    10.0   1_554     S
Er3     V12    10.0   1_554     S
Er4     Er8    10.0   .     S
Er4     V20    10.0   .     S
Er4     V44    10.0   .     S
Er4     Er6    10.0   .     S
Er4     V35    10.0   .     S
Er4     V11    10.0   .     S
Er5     V10    10.0   1_554     S
Er5     V36    10.0   1_554     S
Er5     V43    10.0   .     S
Er5     V17    10.0   .     S
Er6     V9    10.0   .     S
Er6     V35    10.0   .     S
Er6     V44    10.0   .     S
Er6     V18    10.0   .     S
Er7     V12    10.0   1_554     S
Er7     Er1    10.0   1_565     S
Er7     V34    10.0   1_564     S
Er7     V41    10.0   1_565     S
Er7     V19    10.0   .     S
Er8     V11    10.0   .     S
Er8     Er2    10.0   1_565     S
Er8     V33    10.0   1_565     S
Er8     V42    10.0   1_565     S
Er8     V20    10.0   .     S
V9     V13    10.0   1_455     S
V9     V18    10.0   .     S
V9     V17    10.0   .     S
V10     Er5    10.0   1_556     S
V10     Er1    10.0   1_556     S
V10     V14    10.0   1_455     S
V10     V17    10.0   1_556     S
V10     V18    10.0   .     S
V11     V15    10.0   1_455     S
V11     V20    10.0   .     S
V11     V19    10.0   .     S
V12     Er7    10.0   1_556     S
V12     Er3    10.0   1_556     S
V12     V16    10.0   1_455     S
V12     V19    10.0   1_556     S
V12     V20    10.0   .     S
V13     V9    10.0   1_655     S
V13     V22    10.0   .     S
V13     V21    10.0   .     S
V13     Er26    10.0   .     S
V13     Er30    10.0   .     S
V14     V10    10.0   1_655     S
V14     V21    10.0   1_556     S
V14     V22    10.0   .     S
V14     Er25    10.0   1_556     S
V14     Er29    10.0   1_556     S
V15     V11    10.0   1_655     S
V15     V24    10.0   .     S
V15     V23    10.0   .     S
V15     Er28    10.0   .     S
V15     Er32    10.0   .     S
V16     V12    10.0   1_655     S
V16     V23    10.0   1_556     S
V16     V24    10.0   .     S
V16     Er27    10.0   1_556     S
V16     Er31    10.0   1_556     S
V17     V10    10.0   1_554     S
V17     V21    10.0   1_455     S
V18     V22    10.0   1_455     S
V19     V12    10.0   1_554     S
V19     V23    10.0   1_455     S
V20     V24    10.0   1_455     S
V21     V14    10.0   1_554     S
V21     V17    10.0   1_655     S
V21     Er29    10.0   .     S
V21     Er25    10.0   .     S
V22     V18    10.0   1_655     S
V22     Er30    10.0   .     S
V22     Er26    10.0   .     S
V23     V16    10.0   1_554     S
V23     V19    10.0   1_655     S
V23     Er31    10.0   .     S
V23     Er27    10.0   .     S
V24     V20    10.0   1_655     S
V24     Er32    10.0   .     S
V24     Er28    10.0   .     S
Er25     V14    10.0   1_554     S
Er25     Er29    10.0   .     S
Er25     Er31    10.0   1_545     S
Er25     V38    10.0   1_554     S
Er25     V45    10.0   .     S
Er26     Er30    10.0   .     S
Er26     Er32    10.0   1_545     S
Er26     V37    10.0   .     S
Er26     V46    10.0   .     S
Er27     V16    10.0   1_554     S
Er27     Er31    10.0   .     S
Er27     Er29    10.0   .     S
Er27     V40    10.0   1_554     S
Er27     V47    10.0   .     S
Er28     Er32    10.0   .     S
Er28     Er30    10.0   .     S
Er28     V39    10.0   .     S
Er28     V48    10.0   .     S
Er29     V14    10.0   1_554     S
Er29     V40    10.0   1_554     S
Er29     V47    10.0   .     S
Er30     V39    10.0   .     S
Er30     V48    10.0   .     S
Er31     V16    10.0   1_554     S
Er31     Er25    10.0   1_565     S
Er31     V38    10.0   1_564     S
Er31     V45    10.0   1_565     S
Er32     Er26    10.0   1_565     S
Er32     V37    10.0   1_565     S
Er32     V46    10.0   1_565     S
V33     Er8    10.0   1_545     S
V33     V37    10.0   .     S
V33     V42    10.0   .     S
V33     V41    10.0   .     S
V34     Er7    10.0   1_546     S
V34     Er1    10.0   1_556     S
V34     V38    10.0   .     S
V34     V41    10.0   1_556     S
V34     V42    10.0   .     S
V35     V39    10.0   .     S
V35     V44    10.0   .     S
V35     V43    10.0   .     S
V36     Er5    10.0   1_556     S
V36     Er3    10.0   1_556     S
V36     V40    10.0   .     S
V36     V43    10.0   1_556     S
V36     V44    10.0   .     S
V37     Er32    10.0   1_545     S
V37     V46    10.0   .     S
V37     V45    10.0   .     S
V38     Er31    10.0   1_546     S
V38     Er25    10.0   1_556     S
V38     V45    10.0   1_556     S
V38     V46    10.0   .     S
V39     V48    10.0   .     S
V39     V47    10.0   .     S
V40     Er29    10.0   1_556     S
V40     Er27    10.0   1_556     S
V40     V47    10.0   1_556     S
V40     V48    10.0   .     S
V41     Er7    10.0   1_545     S
V41     V34    10.0   1_554     S
V41     V45    10.0   .     S
V42     Er8    10.0   1_545     S
V42     V46    10.0   .     S
V43     V36    10.0   1_554     S
V43     V47    10.0   .     S
V44     V48    10.0   .     S
V45     Er31    10.0   1_545     S
V45     V38    10.0   1_554     S
V46     Er32    10.0   1_545     S
V47     V40    10.0   1_554     S
