data_mog
_audit_creation_date              2019-12-31
_audit_creation_method            'Pymatgen'
_symmetry_space_group_name_H-M    'P1'
_symmetry_Int_Tables_number       1
loop_
_symmetry_equiv_pos_as_xyz
  x,y,z
_cell_length_a                    35.1422
_cell_length_b                    35.6866
_cell_length_c                    30.3048
_cell_angle_alpha                 90.0
_cell_angle_beta                 90.0
_cell_angle_gamma                 90.0
loop_
_atom_site_label
_atom_site_type_symbol
_atom_site_fract_x
_atom_site_fract_y
_atom_site_fract_z
Er1     Er     0.6857   0.25   0.25
Er2     Er     0.6857   0.25   0.75
Er3     Er     0.6857   0.75   0.25
Er4     Er     0.6857   0.75   0.75
Er5     Er     0.8143   0.0   0.25
Er6     Er     0.8143   0.0   0.75
Er7     Er     0.8143   0.5   0.25
Er8     Er     0.8143   0.5   0.75
Er9     Er     0.3143   0.25   0.25
Er10     Er     0.3143   0.25   0.75
Er11     Er     0.3143   0.75   0.25
Er12     Er     0.3143   0.75   0.75
Er13     Er     0.1857   0.0   0.25
Er14     Er     0.1857   0.0   0.75
Er15     Er     0.1857   0.5   0.25
Er16     Er     0.1857   0.5   0.75
V17     V     0.0   0.0   0.0
V18     V     0.0   0.0   0.5
V19     V     0.0   0.5   0.0
V20     V     0.0   0.5   0.5
V21     V     0.5   0.25   0.0
V22     V     0.5   0.25   0.5
V23     V     0.5   0.75   0.0
V24     V     0.5   0.75   0.5
loop_
_geom_bond_atom_site_label_1
_geom_bond_atom_site_label_2
_geom_bond_distance
_geom_bond_site_symmetry_2
_ccdc_geom_bond_type
Er1     V21    10.0   .     S
Er1     V22    10.0   .     S
Er1     Er7    10.0   .     S
Er1     Er5    10.0   .     S
Er2     V22    10.0   .     S
Er2     V21    10.0   1_556     S
Er2     Er8    10.0   .     S
Er2     Er6    10.0   .     S
Er3     V23    10.0   .     S
Er3     V24    10.0   .     S
Er3     Er5    10.0   1_565     S
Er3     Er7    10.0   .     S
Er4     V24    10.0   .     S
Er4     V23    10.0   1_556     S
Er4     Er6    10.0   1_565     S
Er4     Er8    10.0   .     S
Er5     V17    10.0   1_655     S
Er5     V18    10.0   1_655     S
Er5     Er3    10.0   1_545     S
Er6     V18    10.0   1_655     S
Er6     V17    10.0   1_656     S
Er6     Er4    10.0   1_545     S
Er7     V19    10.0   1_655     S
Er7     V20    10.0   1_655     S
Er8     V20    10.0   1_655     S
Er8     V19    10.0   1_656     S
Er9     V21    10.0   .     S
Er9     V22    10.0   .     S
Er9     Er13    10.0   .     S
Er9     Er15    10.0   .     S
Er10     V22    10.0   .     S
Er10     V21    10.0   1_556     S
Er10     Er14    10.0   .     S
Er10     Er16    10.0   .     S
Er11     V23    10.0   .     S
Er11     V24    10.0   .     S
Er11     Er15    10.0   .     S
Er11     Er13    10.0   1_565     S
Er12     V24    10.0   .     S
Er12     V23    10.0   1_556     S
Er12     Er16    10.0   .     S
Er12     Er14    10.0   1_565     S
Er13     V17    10.0   .     S
Er13     V18    10.0   .     S
Er13     Er11    10.0   1_545     S
Er14     V18    10.0   .     S
Er14     V17    10.0   1_556     S
Er14     Er12    10.0   1_545     S
Er15     V19    10.0   .     S
Er15     V20    10.0   .     S
Er16     V20    10.0   .     S
Er16     V19    10.0   1_556     S
V17     Er5    10.0   1_455     S
V17     Er6    10.0   1_454     S
V17     Er14    10.0   1_554     S
V18     Er6    10.0   1_455     S
V18     Er5    10.0   1_455     S
V19     Er7    10.0   1_455     S
V19     Er8    10.0   1_454     S
V19     Er16    10.0   1_554     S
V20     Er8    10.0   1_455     S
V20     Er7    10.0   1_455     S
V21     Er2    10.0   1_554     S
V21     Er10    10.0   1_554     S
V23     Er4    10.0   1_554     S
V23     Er12    10.0   1_554     S
