data_mok
_audit_creation_date              2019-12-31
_audit_creation_method            'Pymatgen'
_symmetry_space_group_name_H-M    'P1'
_symmetry_Int_Tables_number       1
loop_
_symmetry_equiv_pos_as_xyz
  x,y,z
_cell_length_a                    32.3646
_cell_length_b                    26.8504
_cell_length_c                    33.1036
_cell_angle_alpha                 90.0
_cell_angle_beta                 90.0
_cell_angle_gamma                 90.0
loop_
_atom_site_label
_atom_site_type_symbol
_atom_site_fract_x
_atom_site_fract_y
_atom_site_fract_z
V1     V     0.9036   0.3955   0.25
V2     V     0.9036   0.3955   0.75
V3     V     0.9036   0.8955   0.25
V4     V     0.9036   0.8955   0.75
V5     V     0.5965   0.3545   0.25
V6     V     0.5965   0.3545   0.75
V7     V     0.5965   0.8545   0.25
V8     V     0.5965   0.8545   0.75
V9     V     0.9036   0.1045   0.0
V10     V     0.9036   0.1045   0.5
V11     V     0.9036   0.6045   0.0
V12     V     0.9036   0.6045   0.5
V13     V     0.5965   0.1455   0.0
V14     V     0.5965   0.1455   0.5
V15     V     0.5965   0.6455   0.0
V16     V     0.5965   0.6455   0.5
V17     V     0.4036   0.1455   0.25
V18     V     0.4036   0.1455   0.75
V19     V     0.4036   0.6455   0.25
V20     V     0.4036   0.6455   0.75
V21     V     0.0964   0.1045   0.25
V22     V     0.0964   0.1045   0.75
V23     V     0.0964   0.6045   0.25
V24     V     0.0964   0.6045   0.75
V25     V     0.4036   0.3545   0.0
V26     V     0.4036   0.3545   0.5
V27     V     0.4036   0.8545   0.0
V28     V     0.4036   0.8545   0.5
V29     V     0.0964   0.3955   0.0
V30     V     0.0964   0.3955   0.5
V31     V     0.0964   0.8955   0.0
V32     V     0.0964   0.8955   0.5
loop_
_geom_bond_atom_site_label_1
_geom_bond_atom_site_label_2
_geom_bond_distance
_geom_bond_site_symmetry_2
_ccdc_geom_bond_type
V1     V5    10.0   .     S
V1     V11    10.0   .     S
V1     V12    10.0   .     S
V1     V21    10.0   1_655     S
V2     V6    10.0   .     S
V2     V12    10.0   .     S
V2     V11    10.0   1_556     S
V2     V22    10.0   1_655     S
V3     V7    10.0   .     S
V3     V9    10.0   1_565     S
V3     V10    10.0   1_565     S
V3     V23    10.0   1_655     S
V4     V8    10.0   .     S
V4     V10    10.0   1_565     S
V4     V9    10.0   1_566     S
V4     V24    10.0   1_655     S
V5     V13    10.0   .     S
V5     V14    10.0   .     S
V5     V19    10.0   .     S
V6     V14    10.0   .     S
V6     V13    10.0   1_556     S
V6     V20    10.0   .     S
V7     V15    10.0   .     S
V7     V16    10.0   .     S
V7     V17    10.0   1_565     S
V8     V16    10.0   .     S
V8     V15    10.0   1_556     S
V8     V18    10.0   1_565     S
V9     V13    10.0   .     S
V9     V3    10.0   1_545     S
V9     V4    10.0   1_544     S
V9     V29    10.0   1_655     S
V10     V14    10.0   .     S
V10     V4    10.0   1_545     S
V10     V3    10.0   1_545     S
V10     V30    10.0   1_655     S
V11     V15    10.0   .     S
V11     V2    10.0   1_554     S
V11     V31    10.0   1_655     S
V12     V16    10.0   .     S
V12     V32    10.0   1_655     S
V13     V6    10.0   1_554     S
V13     V27    10.0   1_545     S
V14     V28    10.0   1_545     S
V15     V8    10.0   1_554     S
V15     V25    10.0   .     S
V16     V26    10.0   .     S
V17     V21    10.0   .     S
V17     V25    10.0   .     S
V17     V26    10.0   .     S
V17     V7    10.0   1_545     S
V18     V22    10.0   .     S
V18     V26    10.0   .     S
V18     V25    10.0   1_556     S
V18     V8    10.0   1_545     S
V19     V23    10.0   .     S
V19     V27    10.0   .     S
V19     V28    10.0   .     S
V20     V24    10.0   .     S
V20     V28    10.0   .     S
V20     V27    10.0   1_556     S
V21     V31    10.0   1_545     S
V21     V32    10.0   1_545     S
V21     V1    10.0   1_455     S
V22     V32    10.0   1_545     S
V22     V31    10.0   1_546     S
V22     V2    10.0   1_455     S
V23     V29    10.0   .     S
V23     V30    10.0   .     S
V23     V3    10.0   1_455     S
V24     V30    10.0   .     S
V24     V29    10.0   1_556     S
V24     V4    10.0   1_455     S
V25     V29    10.0   .     S
V25     V18    10.0   1_554     S
V26     V30    10.0   .     S
V27     V31    10.0   .     S
V27     V20    10.0   1_554     S
V27     V13    10.0   1_565     S
V28     V32    10.0   .     S
V28     V14    10.0   1_565     S
V29     V24    10.0   1_554     S
V29     V9    10.0   1_455     S
V30     V10    10.0   1_455     S
V31     V21    10.0   1_565     S
V31     V22    10.0   1_564     S
V31     V11    10.0   1_455     S
V32     V22    10.0   1_565     S
V32     V21    10.0   1_565     S
V32     V12    10.0   1_455     S
