data_mot
_audit_creation_date              2019-12-31
_audit_creation_method            'Pymatgen'
_symmetry_space_group_name_H-M    'P1'
_symmetry_Int_Tables_number       1
loop_
_symmetry_equiv_pos_as_xyz
  x,y,z
_cell_length_a                    40.0
_cell_length_b                    40.0
_cell_length_c                    30.0
_cell_angle_alpha                 90.0
_cell_angle_beta                 90.0
_cell_angle_gamma                 90.0
loop_
_atom_site_label
_atom_site_type_symbol
_atom_site_fract_x
_atom_site_fract_y
_atom_site_fract_z
V1     V     0.0   0.0   0.0
V2     V     0.0   0.0   0.3333
V3     V     0.0   0.0   0.6667
V4     V     0.0   0.5   0.0
V5     V     0.0   0.5   0.3333
V6     V     0.0   0.5   0.6667
V7     V     0.5   0.0   0.0
V8     V     0.5   0.0   0.3333
V9     V     0.5   0.0   0.6667
V10     V     0.5   0.5   0.0
V11     V     0.5   0.5   0.3333
V12     V     0.5   0.5   0.6667
Er13     Er     0.0   0.25   0.0
Er14     Er     0.0   0.25   0.3333
Er15     Er     0.0   0.25   0.6667
Er16     Er     0.0   0.75   0.0
Er17     Er     0.0   0.75   0.3333
Er18     Er     0.0   0.75   0.6667
Er19     Er     0.5   0.25   0.0
Er20     Er     0.5   0.25   0.3333
Er21     Er     0.5   0.25   0.6667
Er22     Er     0.5   0.75   0.0
Er23     Er     0.5   0.75   0.3333
Er24     Er     0.5   0.75   0.6667
Er25     Er     0.25   0.0   0.0
Er26     Er     0.25   0.0   0.3333
Er27     Er     0.25   0.0   0.6667
Er28     Er     0.25   0.5   0.0
Er29     Er     0.25   0.5   0.3333
Er30     Er     0.25   0.5   0.6667
Er31     Er     0.75   0.0   0.0
Er32     Er     0.75   0.0   0.3333
Er33     Er     0.75   0.0   0.6667
Er34     Er     0.75   0.5   0.0
Er35     Er     0.75   0.5   0.3333
Er36     Er     0.75   0.5   0.6667
loop_
_geom_bond_atom_site_label_1
_geom_bond_atom_site_label_2
_geom_bond_distance
_geom_bond_site_symmetry_2
_ccdc_geom_bond_type
V1     Er13    10.0   .     S
V1     Er31    10.0   1_455     S
V1     Er16    10.0   1_545     S
V1     Er25    10.0   .     S
V2     Er14    10.0   .     S
V2     Er32    10.0   1_455     S
V2     Er17    10.0   1_545     S
V2     Er26    10.0   .     S
V3     Er15    10.0   .     S
V3     Er33    10.0   1_455     S
V3     Er18    10.0   1_545     S
V3     Er27    10.0   .     S
V4     Er16    10.0   .     S
V4     Er34    10.0   1_455     S
V4     Er13    10.0   .     S
V4     Er28    10.0   .     S
V5     Er17    10.0   .     S
V5     Er35    10.0   1_455     S
V5     Er14    10.0   .     S
V5     Er29    10.0   .     S
V6     Er18    10.0   .     S
V6     Er36    10.0   1_455     S
V6     Er15    10.0   .     S
V6     Er30    10.0   .     S
V7     Er19    10.0   .     S
V7     Er25    10.0   .     S
V7     Er22    10.0   1_545     S
V7     Er31    10.0   .     S
V8     Er20    10.0   .     S
V8     Er26    10.0   .     S
V8     Er23    10.0   1_545     S
V8     Er32    10.0   .     S
V9     Er21    10.0   .     S
V9     Er27    10.0   .     S
V9     Er24    10.0   1_545     S
V9     Er33    10.0   .     S
V10     Er22    10.0   .     S
V10     Er28    10.0   .     S
V10     Er19    10.0   .     S
V10     Er34    10.0   .     S
V11     Er23    10.0   .     S
V11     Er29    10.0   .     S
V11     Er20    10.0   .     S
V11     Er35    10.0   .     S
V12     Er24    10.0   .     S
V12     Er30    10.0   .     S
V12     Er21    10.0   .     S
V12     Er36    10.0   .     S
Er13     Er14    10.0   .     S
Er13     Er15    10.0   1_554     S
Er14     Er15    10.0   .     S
Er15     Er13    10.0   1_556     S
Er16     V1    10.0   1_565     S
Er16     Er17    10.0   .     S
Er16     Er18    10.0   1_554     S
Er17     V2    10.0   1_565     S
Er17     Er18    10.0   .     S
Er18     V3    10.0   1_565     S
Er18     Er16    10.0   1_556     S
Er19     Er20    10.0   .     S
Er19     Er21    10.0   1_554     S
Er20     Er21    10.0   .     S
Er21     Er19    10.0   1_556     S
Er22     V7    10.0   1_565     S
Er22     Er23    10.0   .     S
Er22     Er24    10.0   1_554     S
Er23     V8    10.0   1_565     S
Er23     Er24    10.0   .     S
Er24     V9    10.0   1_565     S
Er24     Er22    10.0   1_556     S
Er25     Er26    10.0   .     S
Er25     Er27    10.0   1_554     S
Er26     Er27    10.0   .     S
Er27     Er25    10.0   1_556     S
Er28     Er29    10.0   .     S
Er28     Er30    10.0   1_554     S
Er29     Er30    10.0   .     S
Er30     Er28    10.0   1_556     S
Er31     V1    10.0   1_655     S
Er31     Er32    10.0   .     S
Er31     Er33    10.0   1_554     S
Er32     V2    10.0   1_655     S
Er32     Er33    10.0   .     S
Er33     V3    10.0   1_655     S
Er33     Er31    10.0   1_556     S
Er34     V4    10.0   1_655     S
Er34     Er35    10.0   .     S
Er34     Er36    10.0   1_554     S
Er35     V5    10.0   1_655     S
Er35     Er36    10.0   .     S
Er36     V6    10.0   1_655     S
Er36     Er34    10.0   1_556     S
