data_mou-e
_audit_creation_date              2019-12-31
_audit_creation_method            'Pymatgen'
_symmetry_space_group_name_H-M    'P1'
_symmetry_Int_Tables_number       1
loop_
_symmetry_equiv_pos_as_xyz
  x,y,z
_cell_length_a                    44.4772
_cell_length_b                    44.4772
_cell_length_c                    26.0726
_cell_angle_alpha                 90.0
_cell_angle_beta                 90.0
_cell_angle_gamma                 90.0
loop_
_atom_site_label
_atom_site_type_symbol
_atom_site_fract_x
_atom_site_fract_y
_atom_site_fract_z
Er1     Er     0.0   0.6705   0.25
Er2     Er     0.0   0.6705   0.75
Ti3     Ti     0.0   0.5   0.0
Ti4     Ti     0.0   0.5   0.5
Er5     Er     0.0   0.3295   0.25
Er6     Er     0.0   0.3295   0.75
Er7     Er     0.6705   0.0   0.25
Er8     Er     0.6705   0.0   0.75
Ti9     Ti     0.5   0.0   0.0
Ti10     Ti     0.5   0.0   0.5
Er11     Er     0.3295   0.0   0.25
Er12     Er     0.3295   0.0   0.75
V13     V     0.0   0.159   0.0
V14     V     0.0   0.159   0.5
V15     V     0.159   0.0   0.0
V16     V     0.159   0.0   0.5
V17     V     0.841   0.0   0.0
V18     V     0.841   0.0   0.5
V19     V     0.0   0.841   0.0
V20     V     0.0   0.841   0.5
loop_
_geom_bond_atom_site_label_1
_geom_bond_atom_site_label_2
_geom_bond_distance
_geom_bond_site_symmetry_2
_ccdc_geom_bond_type
Er1     V19    10.0   .     S
Er1     V20    10.0   .     S
Er1     Ti3    10.0   .     S
Er1     Ti4    10.0   .     S
Er2     V20    10.0   .     S
Er2     V19    10.0   1_556     S
Er2     Ti4    10.0   .     S
Er2     Ti3    10.0   1_556     S
Ti3     Er6    10.0   1_554     S
Ti3     Er5    10.0   .     S
Ti3     Er2    10.0   1_554     S
Ti4     Er5    10.0   .     S
Ti4     Er6    10.0   .     S
Er5     V14    10.0   .     S
Er5     V13    10.0   .     S
Er6     Ti3    10.0   1_556     S
Er6     V13    10.0   1_556     S
Er6     V14    10.0   .     S
Er7     V17    10.0   .     S
Er7     V18    10.0   .     S
Er7     Ti9    10.0   .     S
Er7     Ti10    10.0   .     S
Er8     V18    10.0   .     S
Er8     V17    10.0   1_556     S
Er8     Ti10    10.0   .     S
Er8     Ti9    10.0   1_556     S
Ti9     Er12    10.0   1_554     S
Ti9     Er11    10.0   .     S
Ti9     Er8    10.0   1_554     S
Ti10     Er11    10.0   .     S
Ti10     Er12    10.0   .     S
Er11     V16    10.0   .     S
Er11     V15    10.0   .     S
Er12     Ti9    10.0   1_556     S
Er12     V15    10.0   1_556     S
Er12     V16    10.0   .     S
V13     Er6    10.0   1_554     S
V13     V15    10.0   .     S
V13     V17    10.0   1_455     S
V14     V16    10.0   .     S
V14     V18    10.0   1_455     S
V15     Er12    10.0   1_554     S
V15     V19    10.0   1_545     S
V16     V20    10.0   1_545     S
V17     Er8    10.0   1_554     S
V17     V13    10.0   1_655     S
V17     V19    10.0   1_645     S
V18     V14    10.0   1_655     S
V18     V20    10.0   1_645     S
V19     Er2    10.0   1_554     S
V19     V17    10.0   1_465     S
V19     V15    10.0   1_565     S
V20     V18    10.0   1_465     S
V20     V16    10.0   1_565     S
