data_mou
_audit_creation_date              2019-12-31
_audit_creation_method            'Pymatgen'
_symmetry_space_group_name_H-M    'P1'
_symmetry_Int_Tables_number       1
loop_
_symmetry_equiv_pos_as_xyz
  x,y,z
_cell_length_a                    29.9999
_cell_length_b                    29.9999
_cell_length_c                    30.0
_cell_angle_alpha                 90.0
_cell_angle_beta                 90.0
_cell_angle_gamma                 90.0
loop_
_atom_site_label
_atom_site_type_symbol
_atom_site_fract_x
_atom_site_fract_y
_atom_site_fract_z
Er1     Er     0.3333   0.0   0.0
Er2     Er     0.3333   0.0   0.3333
Er3     Er     0.3333   0.0   0.6667
Er4     Er     0.0   0.6667   0.0
Er5     Er     0.0   0.6667   0.3333
Er6     Er     0.0   0.6667   0.6667
Er7     Er     0.6667   0.0   0.0
Er8     Er     0.6667   0.0   0.3333
Er9     Er     0.6667   0.0   0.6667
V10     V     0.0   0.0   0.0
V11     V     0.0   0.0   0.3333
V12     V     0.0   0.0   0.6667
Er13     Er     0.0   0.3333   0.0
Er14     Er     0.0   0.3333   0.3333
Er15     Er     0.0   0.3333   0.6667
loop_
_geom_bond_atom_site_label_1
_geom_bond_atom_site_label_2
_geom_bond_distance
_geom_bond_site_symmetry_2
_ccdc_geom_bond_type
Er1     V10    10.0   .     S
Er1     Er2    10.0   .     S
Er1     Er3    10.0   1_554     S
Er1     Er7    10.0   .     S
Er2     V11    10.0   .     S
Er2     Er3    10.0   .     S
Er2     Er8    10.0   .     S
Er3     V12    10.0   .     S
Er3     Er1    10.0   1_556     S
Er3     Er9    10.0   .     S
Er4     V10    10.0   1_565     S
Er4     Er5    10.0   .     S
Er4     Er6    10.0   1_554     S
Er4     Er13    10.0   .     S
Er5     V11    10.0   1_565     S
Er5     Er6    10.0   .     S
Er5     Er14    10.0   .     S
Er6     V12    10.0   1_565     S
Er6     Er4    10.0   1_556     S
Er6     Er15    10.0   .     S
Er7     V10    10.0   1_655     S
Er7     Er8    10.0   .     S
Er7     Er9    10.0   1_554     S
Er8     V11    10.0   1_655     S
Er8     Er9    10.0   .     S
Er9     V12    10.0   1_655     S
Er9     Er7    10.0   1_556     S
V10     Er4    10.0   1_545     S
V10     Er7    10.0   1_455     S
V10     Er13    10.0   .     S
V11     Er5    10.0   1_545     S
V11     Er8    10.0   1_455     S
V11     Er14    10.0   .     S
V12     Er6    10.0   1_545     S
V12     Er9    10.0   1_455     S
V12     Er15    10.0   .     S
Er13     Er14    10.0   .     S
Er13     Er15    10.0   1_554     S
Er14     Er15    10.0   .     S
Er15     Er13    10.0   1_556     S
