data_mrc
_audit_creation_date              2019-12-31
_audit_creation_method            'Pymatgen'
_symmetry_space_group_name_H-M    'P1'
_symmetry_Int_Tables_number       1
loop_
_symmetry_equiv_pos_as_xyz
  x,y,z
_cell_length_a                    20.0629
_cell_length_b                    23.555
_cell_length_c                    30.657
_cell_angle_alpha                 90.0
_cell_angle_beta                 90.0
_cell_angle_gamma                 90.0
loop_
_atom_site_label
_atom_site_type_symbol
_atom_site_fract_x
_atom_site_fract_y
_atom_site_fract_z
Er1     Er     0.2096   0.3852   0.0
Er2     Er     0.2096   0.3852   0.5
Er3     Er     0.7904   0.6148   0.0
Er4     Er     0.7904   0.6148   0.5
V5     V     0.5   0.5   0.25
V6     V     0.5   0.5   0.75
Er7     Er     0.7096   0.1148   0.25
Er8     Er     0.7096   0.1148   0.75
Er9     Er     0.2904   0.8852   0.25
Er10     Er     0.2904   0.8852   0.75
V11     V     0.0   0.0   0.0
V12     V     0.0   0.0   0.5
loop_
_geom_bond_atom_site_label_1
_geom_bond_atom_site_label_2
_geom_bond_distance
_geom_bond_site_symmetry_2
_ccdc_geom_bond_type
Er1     V11    10.0   .     S
Er1     V5    10.0   .     S
Er1     V6    10.0   1_554     S
Er1     Er3    10.0   1_455     S
Er2     V12    10.0   .     S
Er2     V6    10.0   .     S
Er2     V5    10.0   .     S
Er2     Er4    10.0   1_455     S
Er3     V11    10.0   1_665     S
Er3     V5    10.0   .     S
Er3     V6    10.0   1_554     S
Er3     Er1    10.0   1_655     S
Er4     V12    10.0   1_665     S
Er4     V6    10.0   .     S
Er4     V5    10.0   .     S
Er4     Er2    10.0   1_655     S
V5     Er7    10.0   .     S
V5     Er9    10.0   .     S
V6     Er1    10.0   1_556     S
V6     Er3    10.0   1_556     S
V6     Er8    10.0   .     S
V6     Er10    10.0   .     S
Er7     V11    10.0   1_655     S
Er7     V12    10.0   1_655     S
Er7     Er9    10.0   1_545     S
Er8     V12    10.0   1_655     S
Er8     V11    10.0   1_656     S
Er8     Er10    10.0   1_545     S
Er9     V11    10.0   1_565     S
Er9     V12    10.0   1_565     S
Er9     Er7    10.0   1_565     S
Er10     V12    10.0   1_565     S
Er10     V11    10.0   1_566     S
Er10     Er8    10.0   1_565     S
V11     Er3    10.0   1_445     S
V11     Er7    10.0   1_455     S
V11     Er8    10.0   1_454     S
V11     Er9    10.0   1_545     S
V11     Er10    10.0   1_544     S
V12     Er4    10.0   1_445     S
V12     Er8    10.0   1_455     S
V12     Er7    10.0   1_455     S
V12     Er10    10.0   1_545     S
V12     Er9    10.0   1_545     S
