data_msf
_audit_creation_date              2019-12-31
_audit_creation_method            'Pymatgen'
_symmetry_space_group_name_H-M    'P1'
_symmetry_Int_Tables_number       1
loop_
_symmetry_equiv_pos_as_xyz
  x,y,z
_cell_length_a                    122.8479
_cell_length_b                    122.8479
_cell_length_c                    39.3066
_cell_angle_alpha                 90.0
_cell_angle_beta                 90.0
_cell_angle_gamma                 120.0
loop_
_atom_site_label
_atom_site_type_symbol
_atom_site_fract_x
_atom_site_fract_y
_atom_site_fract_z
Ti1     Ti     0.1345   0.8001   0.293
Ti2     Ti     0.1345   0.8001   0.793
Ce3     Ce     0.1174   0.7841   0.0387
Ce4     Ce     0.1174   0.7841   0.5387
Ti5     Ti     0.999   0.5322   0.1263
Ti6     Ti     0.999   0.5322   0.6263
Ce7     Ce     0.0001   0.5493   0.3721
Ce8     Ce     0.0001   0.5493   0.8721
Ti9     Ti     0.8665   0.6677   0.4597
Ti10     Ti     0.8665   0.6677   0.9597
Ce11     Ce     0.8826   0.6666   0.2054
Ce12     Ce     0.8826   0.6666   0.7054
V13     V     0.0359   0.7018   0.0408
V14     V     0.0359   0.7018   0.5408
Er15     Er     0.999   0.6141   0.1241
Er16     Er     0.999   0.6141   0.6241
V17     V     0.9648   0.6674   0.2075
V18     V     0.9648   0.6674   0.7075
Er19     Er     0.0526   0.7182   0.2908
Er20     Er     0.0526   0.7182   0.7908
V21     V     0.9993   0.6308   0.3741
V22     V     0.9993   0.6308   0.8741
Er23     Er     0.9484   0.6677   0.4575
Er24     Er     0.9484   0.6677   0.9575
Ti25     Ti     0.5322   0.5332   0.3737
Ti26     Ti     0.5322   0.5332   0.8737
Ce27     Ce     0.5493   0.5492   0.1279
Ce28     Ce     0.5493   0.5492   0.6279
Ti29     Ti     0.8001   0.6657   0.207
Ti30     Ti     0.8001   0.6657   0.707
Ce31     Ce     0.7841   0.6667   0.4613
Ce32     Ce     0.7841   0.6667   0.9613
Ti33     Ti     0.6677   0.8011   0.0403
Ti34     Ti     0.6677   0.8011   0.5403
Ce35     Ce     0.6666   0.784   0.2946
Ce36     Ce     0.6666   0.784   0.7946
V37     V     0.6674   0.7025   0.2925
V38     V     0.6674   0.7025   0.7925
Er39     Er     0.7182   0.6656   0.2092
Er40     Er     0.7182   0.6656   0.7092
V41     V     0.6308   0.6315   0.1259
V42     V     0.6308   0.6315   0.6259
Er43     Er     0.6677   0.7193   0.0425
Er44     Er     0.6677   0.7193   0.5425
V45     V     0.7018   0.666   0.4592
V46     V     0.7018   0.666   0.9592
Er47     Er     0.6141   0.6151   0.3759
Er48     Er     0.6141   0.6151   0.8759
Ti49     Ti     0.4678   0.4668   0.1263
Ti50     Ti     0.4678   0.4668   0.6263
Ce51     Ce     0.4507   0.4508   0.3721
Ce52     Ce     0.4507   0.4508   0.8721
Ti53     Ti     0.3324   0.1989   0.4597
Ti54     Ti     0.3324   0.1989   0.9597
Ce55     Ce     0.3334   0.216   0.2054
Ce56     Ce     0.3334   0.216   0.7054
Ti57     Ti     0.1999   0.3343   0.293
Ti58     Ti     0.1999   0.3343   0.793
Ce59     Ce     0.2159   0.3333   0.0387
Ce60     Ce     0.2159   0.3333   0.5387
V61     V     0.3326   0.2975   0.2075
V62     V     0.3326   0.2975   0.7075
Er63     Er     0.2818   0.3344   0.2908
Er64     Er     0.2818   0.3344   0.7908
V65     V     0.3692   0.3685   0.3741
V66     V     0.3692   0.3685   0.8741
Er67     Er     0.3323   0.2807   0.4575
Er68     Er     0.3323   0.2807   0.9575
V69     V     0.2982   0.334   0.0408
V70     V     0.2982   0.334   0.5408
Er71     Er     0.3859   0.3849   0.1241
Er72     Er     0.3859   0.3849   0.6241
Ti73     Ti     0.8011   0.1335   0.4597
Ti74     Ti     0.8011   0.1335   0.9597
Ce75     Ce     0.784   0.1174   0.2054
Ce76     Ce     0.784   0.1174   0.7054
Ti77     Ti     0.5332   0.001   0.1263
Ti78     Ti     0.5332   0.001   0.6263
Ce79     Ce     0.5492   0.9999   0.3721
Ce80     Ce     0.5492   0.9999   0.8721
Ti81     Ti     0.6657   0.8655   0.293
Ti82     Ti     0.6657   0.8655   0.793
Ce83     Ce     0.6667   0.8826   0.0387
Ce84     Ce     0.6667   0.8826   0.5387
V85     V     0.6315   0.0007   0.3741
V86     V     0.6315   0.0007   0.8741
Er87     Er     0.7193   0.0516   0.4575
Er88     Er     0.7193   0.0516   0.9575
V89     V     0.666   0.9641   0.0408
V90     V     0.666   0.9641   0.5408
Er91     Er     0.6151   0.001   0.1241
Er92     Er     0.6151   0.001   0.6241
V93     V     0.7025   0.0352   0.2075
V94     V     0.7025   0.0352   0.7075
Er95     Er     0.6656   0.9474   0.2908
Er96     Er     0.6656   0.9474   0.7908
Ti97     Ti     0.001   0.4678   0.3737
Ti98     Ti     0.001   0.4678   0.8737
Ce99     Ce     0.9999   0.4507   0.1279
Ce100     Ce     0.9999   0.4507   0.6279
Ti101     Ti     0.1335   0.3324   0.0403
Ti102     Ti     0.1335   0.3324   0.5403
Ce103     Ce     0.1174   0.3334   0.2946
Ce104     Ce     0.1174   0.3334   0.7946
Ti105     Ti     0.8655   0.1999   0.207
Ti106     Ti     0.8655   0.1999   0.707
Ce107     Ce     0.8826   0.2159   0.4613
Ce108     Ce     0.8826   0.2159   0.9613
V109     V     0.9641   0.2982   0.4592
V110     V     0.9641   0.2982   0.9592
Er111     Er     0.001   0.3859   0.3759
Er112     Er     0.001   0.3859   0.8759
V113     V     0.0352   0.3326   0.2925
V114     V     0.0352   0.3326   0.7925
Er115     Er     0.9474   0.2818   0.2092
Er116     Er     0.9474   0.2818   0.7092
V117     V     0.0007   0.3692   0.1259
V118     V     0.0007   0.3692   0.6259
Er119     Er     0.0516   0.3323   0.0425
Er120     Er     0.0516   0.3323   0.5425
Ti121     Ti     0.3343   0.1345   0.207
Ti122     Ti     0.3343   0.1345   0.707
Ce123     Ce     0.3333   0.1174   0.4613
Ce124     Ce     0.3333   0.1174   0.9613
Ti125     Ti     0.1989   0.8665   0.0403
Ti126     Ti     0.1989   0.8665   0.5403
Ce127     Ce     0.216   0.8826   0.2946
Ce128     Ce     0.216   0.8826   0.7946
Ti129     Ti     0.4668   0.999   0.3737
Ti130     Ti     0.4668   0.999   0.8737
Ce131     Ce     0.4508   0.0001   0.1279
Ce132     Ce     0.4508   0.0001   0.6279
V133     V     0.3685   0.9993   0.1259
V134     V     0.3685   0.9993   0.6259
Er135     Er     0.2807   0.9484   0.0425
Er136     Er     0.2807   0.9484   0.5425
V137     V     0.334   0.0359   0.4592
V138     V     0.334   0.0359   0.9592
Er139     Er     0.3849   0.999   0.3759
Er140     Er     0.3849   0.999   0.8759
V141     V     0.2975   0.9648   0.2925
V142     V     0.2975   0.9648   0.7925
Er143     Er     0.3344   0.0526   0.2092
Er144     Er     0.3344   0.0526   0.7092
loop_
_geom_bond_atom_site_label_1
_geom_bond_atom_site_label_2
_geom_bond_distance
_geom_bond_site_symmetry_2
_ccdc_geom_bond_type
Ti1     Er19    10.057   .     S
Ti1     Ce127    10.069   .     S
Ti1     Ce4    9.871   .     S
Ti2     Er20    10.057   .     S
Ti2     Ce128    10.069   .     S
Ti2     Ce3    9.871   1_556     S
Ce3     V13    10.061   .     S
Ce3     Ti125    10.069   .     S
Ce3     Ti2    9.871   1_554     S
Ce4     V14    10.061   .     S
Ce4     Ti126    10.069   .     S
Ti5     Er15    10.057   .     S
Ti5     Ce99    10.069   .     S
Ti5     Ce7    9.871   1_655     S
Ti6     Er16    10.057   .     S
Ti6     Ce100    10.069   .     S
Ti6     Ce8    9.871   1_655     S
Ce7     V21    10.061   1_455     S
Ce7     Ti97    10.069   .     S
Ce7     Ti5    9.871   1_455     S
Ce8     V22    10.061   1_455     S
Ce8     Ti98    10.069   .     S
Ce8     Ti6    9.871   1_455     S
Ti9     Er23    10.057   .     S
Ti9     Ce31    10.069   .     S
Ti9     Ce12    9.871   .     S
Ti10     Er24    10.057   .     S
Ti10     Ce32    10.069   .     S
Ti10     Ce11    9.871   1_556     S
Ce11     V17    10.061   .     S
Ce11     Ti29    10.069   .     S
Ce11     Ti10    9.871   1_554     S
Ce12     V18    10.061   .     S
Ce12     Ti30    10.069   .     S
V13     Er19    10.036   .     S
V13     Er20    10.036   1_554     S
V13     Er24    9.933   1_454     S
V13     Er15    9.934   1_455     S
V13     V17    10.002   1_455     S
V13     V22    10.002   1_454     S
V14     Er20    10.036   .     S
V14     Er19    10.036   .     S
V14     Er23    9.933   1_455     S
V14     Er16    9.934   1_455     S
V14     V18    10.002   1_455     S
V14     V21    10.002   1_455     S
Er15     V21    10.036   .     S
Er15     V22    10.036   1_554     S
Er15     V13    9.934   1_655     S
Er15     V17    9.933   .     S
Er16     V22    10.036   .     S
Er16     V21    10.036   .     S
Er16     V14    9.934   1_655     S
Er16     V18    9.933   .     S
V17     Er24    10.036   1_554     S
V17     Er23    10.036   .     S
V17     Er19    9.934   1_655     S
V17     V13    10.002   1_655     S
V17     V21    10.002   .     S
V18     Er23    10.036   .     S
V18     Er24    10.036   .     S
V18     Er20    9.934   1_655     S
V18     V14    10.002   1_655     S
V18     V22    10.002   .     S
Er19     V17    9.934   1_455     S
Er19     V21    9.933   1_455     S
Er20     V13    10.036   1_556     S
Er20     V18    9.934   1_455     S
Er20     V22    9.933   1_455     S
V21     Ce7    10.061   1_655     S
V21     Er19    9.933   1_655     S
V21     Er23    9.934   .     S
V21     V14    10.002   1_655     S
V22     Ce8    10.061   1_655     S
V22     Er15    10.036   1_556     S
V22     Er20    9.933   1_655     S
V22     Er24    9.934   .     S
V22     V13    10.002   1_656     S
Er23     V14    9.933   1_655     S
Er24     V17    10.036   1_556     S
Er24     V13    9.933   1_656     S
Ti25     Er47    10.057   .     S
Ti25     Ce51    10.069   .     S
Ti25     Ce27    9.871   .     S
Ti26     Er48    10.057   .     S
Ti26     Ce52    10.069   .     S
Ti26     Ce28    9.871   .     S
Ce27     V41    10.061   .     S
Ce27     Ti49    10.069   .     S
Ce28     V42    10.061   .     S
Ce28     Ti50    10.069   .     S
Ti29     Er39    10.057   .     S
Ti29     Ce32    9.871   1_554     S
Ti30     Er40    10.057   .     S
Ti30     Ce31    9.871   .     S
Ce31     V45    10.061   .     S
Ce32     V46    10.061   .     S
Ce32     Ti29    9.871   1_556     S
Ti33     Er43    10.057   .     S
Ti33     Ce83    10.069   .     S
Ti33     Ce36    9.871   1_554     S
Ti34     Er44    10.057   .     S
Ti34     Ce84    10.069   .     S
Ti34     Ce35    9.871   .     S
Ce35     V37    10.061   .     S
Ce35     Ti81    10.069   .     S
Ce36     V38    10.061   .     S
Ce36     Ti82    10.069   .     S
Ce36     Ti33    9.871   1_556     S
V37     Er43    10.036   .     S
V37     Er44    10.036   .     S
V37     Er47    9.933   .     S
V37     Er39    9.934   .     S
V37     V41    10.002   .     S
V37     V45    10.002   .     S
V38     Er44    10.036   .     S
V38     Er43    10.036   1_556     S
V38     Er48    9.933   .     S
V38     Er40    9.934   .     S
V38     V42    10.002   .     S
V38     V46    10.002   .     S
Er39     V46    10.036   1_554     S
Er39     V45    10.036   .     S
Er39     V41    9.933   .     S
Er40     V45    10.036   .     S
Er40     V46    10.036   .     S
Er40     V42    9.933   .     S
V41     Er47    10.036   .     S
V41     Er48    10.036   1_554     S
V41     Er43    9.934   .     S
V41     V46    10.002   1_554     S
V42     Er48    10.036   .     S
V42     Er47    10.036   .     S
V42     Er44    9.934   .     S
V42     V45    10.002   .     S
Er43     V38    10.036   1_554     S
Er43     V46    9.933   1_554     S
Er44     V45    9.933   .     S
V45     Er47    9.934   .     S
V46     Er39    10.036   1_556     S
V46     Er43    9.933   1_556     S
V46     Er48    9.934   .     S
V46     V41    10.002   1_556     S
Er48     V41    10.036   1_556     S
Ti49     Er71    10.057   .     S
Ti49     Ce51    9.871   .     S
Ti50     Er72    10.057   .     S
Ti50     Ce52    9.871   .     S
Ce51     V65    10.061   .     S
Ce52     V66    10.061   .     S
Ti53     Er67    10.057   .     S
Ti53     Ce123    10.069   .     S
Ti53     Ce56    9.871   .     S
Ti54     Er68    10.057   .     S
Ti54     Ce124    10.069   .     S
Ti54     Ce55    9.871   1_556     S
Ce55     V61    10.061   .     S
Ce55     Ti121    10.069   .     S
Ce55     Ti54    9.871   1_554     S
Ce56     V62    10.061   .     S
Ce56     Ti122    10.069   .     S
Ti57     Er63    10.057   .     S
Ti57     Ce103    10.069   .     S
Ti57     Ce60    9.871   .     S
Ti58     Er64    10.057   .     S
Ti58     Ce104    10.069   .     S
Ti58     Ce59    9.871   1_556     S
Ce59     V69    10.061   .     S
Ce59     Ti101    10.069   .     S
Ce59     Ti58    9.871   1_554     S
Ce60     V70    10.061   .     S
Ce60     Ti102    10.069   .     S
V61     Er67    10.036   .     S
V61     Er68    10.036   1_554     S
V61     Er71    9.933   .     S
V61     Er63    9.934   .     S
V61     V65    10.002   .     S
V61     V69    10.002   .     S
V62     Er68    10.036   .     S
V62     Er67    10.036   .     S
V62     Er72    9.933   .     S
V62     Er64    9.934   .     S
V62     V66    10.002   .     S
V62     V70    10.002   .     S
Er63     V70    10.036   .     S
Er63     V69    10.036   .     S
Er63     V65    9.933   .     S
Er64     V69    10.036   1_556     S
Er64     V70    10.036   .     S
Er64     V66    9.933   .     S
V65     Er71    10.036   .     S
V65     Er72    10.036   .     S
V65     Er67    9.934   .     S
V65     V70    10.002   .     S
V66     Er72    10.036   .     S
V66     Er71    10.036   1_556     S
V66     Er68    9.934   .     S
V66     V69    10.002   1_556     S
Er67     V70    9.933   .     S
Er68     V61    10.036   1_556     S
Er68     V69    9.933   1_556     S
V69     Er64    10.036   1_554     S
V69     Er68    9.933   1_554     S
V69     Er71    9.934   .     S
V69     V66    10.002   1_554     S
V70     Er72    9.934   .     S
Er71     V66    10.036   1_554     S
Ti73     Er87    10.057   .     S
Ti73     Ce107    10.069   .     S
Ti73     Ce76    9.871   .     S
Ti74     Er88    10.057   .     S
Ti74     Ce108    10.069   .     S
Ti74     Ce75    9.871   1_556     S
Ce75     V93    10.061   .     S
Ce75     Ti105    10.069   .     S
Ce75     Ti74    9.871   1_554     S
Ce76     V94    10.061   .     S
Ce76     Ti106    10.069   .     S
Ti77     Er91    10.057   .     S
Ti77     Ce131    10.069   .     S
Ti77     Ce79    9.871   1_545     S
Ti78     Er92    10.057   .     S
Ti78     Ce132    10.069   .     S
Ti78     Ce80    9.871   1_545     S
Ce79     V85    10.061   1_565     S
Ce79     Ti129    10.069   .     S
Ce79     Ti77    9.871   1_565     S
Ce80     V86    10.061   1_565     S
Ce80     Ti130    10.069   .     S
Ce80     Ti78    9.871   1_565     S
Ti81     Er95    10.057   .     S
Ti81     Ce84    9.871   .     S
Ti82     Er96    10.057   .     S
Ti82     Ce83    9.871   1_556     S
Ce83     V89    10.061   .     S
Ce83     Ti82    9.871   1_554     S
Ce84     V90    10.061   .     S
V85     Ce79    10.061   1_545     S
V85     Er92    10.036   .     S
V85     Er91    10.036   .     S
V85     Er95    9.933   1_545     S
V85     Er87    9.934   .     S
V85     V90    10.002   1_545     S
V85     V93    10.002   .     S
V86     Ce80    10.061   1_545     S
V86     Er91    10.036   1_556     S
V86     Er92    10.036   .     S
V86     Er96    9.933   1_545     S
V86     Er88    9.934   .     S
V86     V89    10.002   1_546     S
V86     V94    10.002   .     S
Er87     V94    10.036   .     S
Er87     V93    10.036   .     S
Er87     V90    9.933   1_545     S
Er88     V93    10.036   1_556     S
Er88     V94    10.036   .     S
Er88     V89    9.933   1_546     S
V89     Er96    10.036   1_554     S
V89     Er95    10.036   .     S
V89     Er88    9.933   1_564     S
V89     Er91    9.934   1_565     S
V89     V86    10.002   1_564     S
V89     V93    10.002   1_565     S
V90     Er95    10.036   .     S
V90     Er96    10.036   .     S
V90     Er87    9.933   1_565     S
V90     Er92    9.934   1_565     S
V90     V85    10.002   1_565     S
V90     V94    10.002   1_565     S
Er91     V86    10.036   1_554     S
Er91     V89    9.934   1_545     S
Er91     V93    9.933   .     S
Er92     V90    9.934   1_545     S
Er92     V94    9.933   .     S
V93     Er88    10.036   1_554     S
V93     Er95    9.934   1_545     S
V93     V89    10.002   1_545     S
V94     Er96    9.934   1_545     S
V94     V90    10.002   1_545     S
Er95     V85    9.933   1_565     S
Er95     V93    9.934   1_565     S
Er96     V89    10.036   1_556     S
Er96     V86    9.933   1_565     S
Er96     V94    9.934   1_565     S
Ti97     Er111    10.057   .     S
Ti97     Ce99    9.871   1_455     S
Ti98     Er112    10.057   .     S
Ti98     Ce100    9.871   1_455     S
Ce99     V117    10.061   1_655     S
Ce99     Ti97    9.871   1_655     S
Ce100     V118    10.061   1_655     S
Ce100     Ti98    9.871   1_655     S
Ti101     Er119    10.057   .     S
Ti101     Ce104    9.871   1_554     S
Ti102     Er120    10.057   .     S
Ti102     Ce103    9.871   .     S
Ce103     V113    10.061   .     S
Ce104     V114    10.061   .     S
Ce104     Ti101    9.871   1_556     S
Ti105     Er115    10.057   .     S
Ti105     Ce108    9.871   1_554     S
Ti106     Er116    10.057   .     S
Ti106     Ce107    9.871   .     S
Ce107     V109    10.061   .     S
Ce108     V110    10.061   .     S
Ce108     Ti105    9.871   1_556     S
V109     Er115    10.036   .     S
V109     Er116    10.036   .     S
V109     Er120    9.933   1_655     S
V109     Er111    9.934   1_655     S
V109     V113    10.002   1_655     S
V109     V118    10.002   1_655     S
V110     Er116    10.036   .     S
V110     Er115    10.036   1_556     S
V110     Er119    9.933   1_656     S
V110     Er112    9.934   1_655     S
V110     V114    10.002   1_655     S
V110     V117    10.002   1_656     S
Er111     V117    10.036   .     S
Er111     V118    10.036   .     S
Er111     V109    9.934   1_455     S
Er111     V113    9.933   .     S
Er112     V118    10.036   .     S
Er112     V117    10.036   1_556     S
Er112     V110    9.934   1_455     S
Er112     V114    9.933   .     S
V113     Er120    10.036   .     S
V113     Er119    10.036   .     S
V113     Er115    9.934   1_455     S
V113     V109    10.002   1_455     S
V113     V117    10.002   .     S
V114     Er119    10.036   1_556     S
V114     Er120    10.036   .     S
V114     Er116    9.934   1_455     S
V114     V110    10.002   1_455     S
V114     V118    10.002   .     S
Er115     V110    10.036   1_554     S
Er115     V113    9.934   1_655     S
Er115     V117    9.933   1_655     S
Er116     V114    9.934   1_655     S
Er116     V118    9.933   1_655     S
V117     Ce99    10.061   1_455     S
V117     Er112    10.036   1_554     S
V117     Er115    9.933   1_455     S
V117     Er119    9.934   .     S
V117     V110    10.002   1_454     S
V118     Ce100    10.061   1_455     S
V118     Er116    9.933   1_455     S
V118     Er120    9.934   .     S
V118     V109    10.002   1_455     S
Er119     V114    10.036   1_554     S
Er119     V110    9.933   1_454     S
Er120     V109    9.933   1_455     S
Ti121     Er143    10.057   .     S
Ti121     Ce124    9.871   1_554     S
Ti122     Er144    10.057   .     S
Ti122     Ce123    9.871   .     S
Ce123     V137    10.061   .     S
Ce124     V138    10.061   .     S
Ce124     Ti121    9.871   1_556     S
Ti125     Er135    10.057   .     S
Ti125     Ce128    9.871   1_554     S
Ti126     Er136    10.057   .     S
Ti126     Ce127    9.871   .     S
Ce127     V141    10.061   .     S
Ce128     V142    10.061   .     S
Ce128     Ti125    9.871   1_556     S
Ti129     Er139    10.057   .     S
Ti129     Ce131    9.871   1_565     S
Ti130     Er140    10.057   .     S
Ti130     Ce132    9.871   1_565     S
Ce131     V133    10.061   1_545     S
Ce131     Ti129    9.871   1_545     S
Ce132     V134    10.061   1_545     S
Ce132     Ti130    9.871   1_545     S
V133     Ce131    10.061   1_565     S
V133     Er140    10.036   1_554     S
V133     Er139    10.036   .     S
V133     Er143    9.933   1_565     S
V133     Er135    9.934   .     S
V133     V138    10.002   1_564     S
V133     V141    10.002   .     S
V134     Ce132    10.061   1_565     S
V134     Er139    10.036   .     S
V134     Er140    10.036   .     S
V134     Er144    9.933   1_565     S
V134     Er136    9.934   .     S
V134     V137    10.002   1_565     S
V134     V142    10.002   .     S
Er135     V142    10.036   1_554     S
Er135     V141    10.036   .     S
Er135     V138    9.933   1_564     S
Er136     V141    10.036   .     S
Er136     V142    10.036   .     S
Er136     V137    9.933   1_565     S
V137     Er144    10.036   .     S
V137     Er143    10.036   .     S
V137     Er136    9.933   1_545     S
V137     Er139    9.934   1_545     S
V137     V134    10.002   1_545     S
V137     V141    10.002   1_545     S
V138     Er143    10.036   1_556     S
V138     Er144    10.036   .     S
V138     Er135    9.933   1_546     S
V138     Er140    9.934   1_545     S
V138     V133    10.002   1_546     S
V138     V142    10.002   1_545     S
Er139     V137    9.934   1_565     S
Er139     V141    9.933   .     S
Er140     V133    10.036   1_556     S
Er140     V138    9.934   1_565     S
Er140     V142    9.933   .     S
V141     Er143    9.934   1_565     S
V141     V137    10.002   1_565     S
V142     Er135    10.036   1_556     S
V142     Er144    9.934   1_565     S
V142     V138    10.002   1_565     S
Er143     V138    10.036   1_554     S
Er143     V133    9.933   1_545     S
Er143     V141    9.934   1_545     S
Er144     V134    9.933   1_545     S
Er144     V142    9.934   1_545     S
