data_msg
_audit_creation_date              2019-12-31
_audit_creation_method            'Pymatgen'
_symmetry_space_group_name_H-M    'P1'
_symmetry_Int_Tables_number       1
loop_
_symmetry_equiv_pos_as_xyz
  x,y,z
_cell_length_a                    174.1121
_cell_length_b                    174.1121
_cell_length_c                    39.3318
_cell_angle_alpha                 90.0
_cell_angle_beta                 90.0
_cell_angle_gamma                 120.0
loop_
_atom_site_label
_atom_site_type_symbol
_atom_site_fract_x
_atom_site_fract_y
_atom_site_fract_z
Ti1     Ti     0.9171   0.2505   0.1662
Ti2     Ti     0.9171   0.2505   0.6662
Ce3     Ce     0.907   0.2384   0.4198
Ce4     Ce     0.907   0.2384   0.9198
Ti5     Ti     0.0   0.4162   0.3329
Ti6     Ti     0.0   0.4162   0.8329
Ce7     Ce     0.9981   0.4264   0.0864
Ce8     Ce     0.9981   0.4264   0.5864
Ti9     Ti     0.0829   0.3333   0.4995
Ti10     Ti     0.0829   0.3333   0.9995
Ce11     Ce     0.0949   0.3352   0.2531
Ce12     Ce     0.0949   0.3352   0.7531
Er13     Er     0.0365   0.333   0.252
Er14     Er     0.0365   0.333   0.752
V15     V     0.0002   0.3586   0.3353
V16     V     0.0002   0.3586   0.8353
Er17     Er     0.9632   0.2968   0.4186
Er18     Er     0.9632   0.2968   0.9186
V19     V     0.0251   0.3331   0.002
V20     V     0.0251   0.3331   0.502
Er21     Er     0.0003   0.3702   0.0853
Er22     Er     0.0003   0.3702   0.5853
V23     V     0.9747   0.3082   0.1687
V24     V     0.9747   0.3082   0.6687
S25     S     0.1378   0.3337   0.4179
S26     S     0.1378   0.3337   0.9179
S27     S     0.8625   0.1955   0.0846
S28     S     0.8625   0.1955   0.5846
S29     S     0.9996   0.4708   0.2512
S30     S     0.9996   0.4708   0.7512
S31     S     0.6663   0.8041   0.4179
S32     S     0.6663   0.8041   0.9179
Ti33     Ti     0.6667   0.7495   0.4995
Ti34     Ti     0.6667   0.7495   0.9995
Ce35     Ce     0.6648   0.7597   0.2531
Ce36     Ce     0.6648   0.7597   0.7531
Ti37     Ti     0.7495   0.6667   0.1662
Ti38     Ti     0.7495   0.6667   0.6662
Ce39     Ce     0.7616   0.6685   0.4198
Ce40     Ce     0.7616   0.6685   0.9198
Ti41     Ti     0.5838   0.5838   0.3329
Ti42     Ti     0.5838   0.5838   0.8329
Ce43     Ce     0.5736   0.5718   0.0864
Ce44     Ce     0.5736   0.5718   0.5864
Er45     Er     0.667   0.7035   0.252
Er46     Er     0.667   0.7035   0.752
V47     V     0.6414   0.6416   0.3353
V48     V     0.6414   0.6416   0.8353
Er49     Er     0.6299   0.6302   0.0853
Er50     Er     0.6299   0.6302   0.5853
V51     V     0.6918   0.6664   0.1687
V52     V     0.6918   0.6664   0.6687
Er53     Er     0.7032   0.6663   0.4186
Er54     Er     0.7032   0.6663   0.9186
V55     V     0.6669   0.692   0.002
V56     V     0.6669   0.692   0.502
S57     S     0.5292   0.5288   0.2512
S58     S     0.5292   0.5288   0.7512
S59     S     0.8045   0.667   0.0846
S60     S     0.8045   0.667   0.5846
S61     S     0.4708   0.4712   0.2488
S62     S     0.4708   0.4712   0.7488
S63     S     0.3337   0.1959   0.0821
S64     S     0.3337   0.1959   0.5821
Ti65     Ti     0.3333   0.2504   0.0005
Ti66     Ti     0.3333   0.2504   0.5005
Ce67     Ce     0.3352   0.2403   0.2469
Ce68     Ce     0.3352   0.2403   0.7469
Ti69     Ti     0.2505   0.3333   0.3338
Ti70     Ti     0.2505   0.3333   0.8338
Ce71     Ce     0.2384   0.3315   0.0802
Ce72     Ce     0.2384   0.3315   0.5802
Ti73     Ti     0.4162   0.4162   0.1671
Ti74     Ti     0.4162   0.4162   0.6671
Ce75     Ce     0.4264   0.4282   0.4136
Ce76     Ce     0.4264   0.4282   0.9136
Er77     Er     0.3702   0.3698   0.4147
Er78     Er     0.3702   0.3698   0.9147
V79     V     0.3082   0.3336   0.3313
V80     V     0.3082   0.3336   0.8313
Er81     Er     0.2968   0.3337   0.0814
Er82     Er     0.2968   0.3337   0.5814
V83     V     0.3331   0.308   0.498
V84     V     0.3331   0.308   0.998
Er85     Er     0.333   0.2965   0.248
Er86     Er     0.333   0.2965   0.748
V87     V     0.3586   0.3584   0.1647
V88     V     0.3586   0.3584   0.6647
S89     S     0.1955   0.333   0.4154
S90     S     0.1955   0.333   0.9154
S91     S     0.1959   0.8622   0.4179
S92     S     0.1959   0.8622   0.9179
Ti93     Ti     0.4162   1.0   0.3329
Ti94     Ti     0.4162   1.0   0.8329
Ce95     Ce     0.4282   0.0019   0.0864
Ce96     Ce     0.4282   0.0019   0.5864
Ti97     Ti     0.2504   0.9171   0.4995
Ti98     Ti     0.2504   0.9171   0.9995
Ce99     Ce     0.2403   0.9051   0.2531
Ce100     Ce     0.2403   0.9051   0.7531
Ti101     Ti     0.3333   0.0829   0.1662
Ti102     Ti     0.3333   0.0829   0.6662
Ce103     Ce     0.3315   0.093   0.4198
Ce104     Ce     0.3315   0.093   0.9198
Er105     Er     0.2965   0.9635   0.252
Er106     Er     0.2965   0.9635   0.752
V107     V     0.3584   0.9998   0.3353
V108     V     0.3584   0.9998   0.8353
Er109     Er     0.3698   0.9997   0.0853
Er110     Er     0.3698   0.9997   0.5853
V111     V     0.3336   0.0253   0.1687
V112     V     0.3336   0.0253   0.6687
Er113     Er     0.3337   0.0368   0.4186
Er114     Er     0.3337   0.0368   0.9186
V115     V     0.308   0.9749   0.002
V116     V     0.308   0.9749   0.502
S117     S     0.333   0.1375   0.0846
S118     S     0.333   0.1375   0.5846
S119     S     0.4712   0.0004   0.2512
S120     S     0.4712   0.0004   0.7512
Ti121     Ti     0.5838   0.0   0.1671
Ti122     Ti     0.5838   0.0   0.6671
Ce123     Ce     0.5718   0.9981   0.4136
Ce124     Ce     0.5718   0.9981   0.9136
Ti125     Ti     0.7496   0.0829   0.0005
Ti126     Ti     0.7496   0.0829   0.5005
Ce127     Ce     0.7597   0.0949   0.2469
Ce128     Ce     0.7597   0.0949   0.7469
Ti129     Ti     0.6667   0.9171   0.3338
Ti130     Ti     0.6667   0.9171   0.8338
Ce131     Ce     0.6685   0.907   0.0802
Ce132     Ce     0.6685   0.907   0.5802
Er133     Er     0.6302   0.0003   0.4147
Er134     Er     0.6302   0.0003   0.9147
V135     V     0.6664   0.9747   0.3313
V136     V     0.6664   0.9747   0.8313
Er137     Er     0.6663   0.9632   0.0814
Er138     Er     0.6663   0.9632   0.5814
V139     V     0.692   0.0251   0.498
V140     V     0.692   0.0251   0.998
Er141     Er     0.7035   0.0365   0.248
Er142     Er     0.7035   0.0365   0.748
V143     V     0.6416   0.0002   0.1647
V144     V     0.6416   0.0002   0.6647
S145     S     0.5288   0.9996   0.2488
S146     S     0.5288   0.9996   0.7488
S147     S     0.8041   0.1378   0.0821
S148     S     0.8041   0.1378   0.5821
S149     S     0.667   0.8625   0.4154
S150     S     0.667   0.8625   0.9154
S151     S     0.8622   0.6663   0.0821
S152     S     0.8622   0.6663   0.5821
S153     S     0.1375   0.8045   0.4154
S154     S     0.1375   0.8045   0.9154
Ti155     Ti     0.0829   0.7495   0.3338
Ti156     Ti     0.0829   0.7495   0.8338
Ce157     Ce     0.093   0.7616   0.0802
Ce158     Ce     0.093   0.7616   0.5802
Ti159     Ti     1.0   0.5838   0.1671
Ti160     Ti     1.0   0.5838   0.6671
Ce161     Ce     0.0019   0.5736   0.4136
Ce162     Ce     0.0019   0.5736   0.9136
Ti163     Ti     0.9171   0.6667   0.0005
Ti164     Ti     0.9171   0.6667   0.5005
Ce165     Ce     0.9051   0.6648   0.2469
Ce166     Ce     0.9051   0.6648   0.7469
Er167     Er     0.9635   0.667   0.248
Er168     Er     0.9635   0.667   0.748
V169     V     0.9998   0.6414   0.1647
V170     V     0.9998   0.6414   0.6647
Er171     Er     0.9997   0.6298   0.4147
Er172     Er     0.9997   0.6298   0.9147
V173     V     0.0253   0.6918   0.3313
V174     V     0.0253   0.6918   0.8313
Er175     Er     0.0368   0.7032   0.0814
Er176     Er     0.0368   0.7032   0.5814
V177     V     0.9749   0.6669   0.498
V178     V     0.9749   0.6669   0.998
S179     S     0.0004   0.5292   0.2488
S180     S     0.0004   0.5292   0.7488
loop_
_geom_bond_atom_site_label_1
_geom_bond_atom_site_label_2
_geom_bond_distance
_geom_bond_site_symmetry_2
_ccdc_geom_bond_type
Ti1     Ce4    9.886   1_554     S
Ti1     V23    10.042   .     S
Ti1     S27    10.061   .     S
Ti2     Ce3    9.886   .     S
Ti2     V24    10.042   .     S
Ti2     S28    10.061   .     S
Ce3     S28    9.993   .     S
Ce3     Er17    9.985   .     S
Ce4     Ti1    9.886   1_556     S
Ce4     S27    9.993   1_556     S
Ce4     Er18    9.985   .     S
Ti5     Ce7    9.886   1_455     S
Ti5     V15    10.042   .     S
Ti5     S29    10.061   1_455     S
Ti6     Ce8    9.886   1_455     S
Ti6     V16    10.042   .     S
Ti6     S30    10.061   1_455     S
Ce7     Ti5    9.886   1_655     S
Ce7     S29    9.993   .     S
Ce7     Er21    9.985   1_655     S
Ce8     Ti6    9.886   1_655     S
Ce8     S30    9.993   .     S
Ce8     Er22    9.985   1_655     S
Ti9     Ce11    9.886   .     S
Ti9     V20    10.042   .     S
Ti9     S25    10.061   .     S
Ti10     Ce12    9.886   .     S
Ti10     V19    10.042   1_556     S
Ti10     S26    10.061   .     S
Ce11     S25    9.993   .     S
Ce11     Er13    9.985   .     S
Ce12     S26    9.993   .     S
Ce12     Er14    9.985   .     S
Er13     V23    9.937   1_455     S
Er13     V15    9.937   .     S
Er13     V20    10.034   .     S
Er13     V19    10.032   .     S
Er14     V24    9.937   1_455     S
Er14     V16    9.937   .     S
Er14     V19    10.034   1_556     S
Er14     V20    10.032   .     S
V15     Er17    9.937   1_455     S
V15     V23    10.037   1_455     S
V15     Er21    10.034   .     S
V15     V20    10.037   .     S
V15     Er22    10.032   .     S
V16     Er18    9.937   1_455     S
V16     V24    10.037   1_455     S
V16     Er22    10.034   .     S
V16     V19    10.037   1_556     S
V16     Er21    10.032   1_556     S
Er17     V15    9.937   1_655     S
Er17     V20    9.937   1_655     S
Er17     V23    10.032   .     S
Er17     V24    10.034   .     S
Er18     V16    9.937   1_655     S
Er18     V19    9.937   1_656     S
Er18     V24    10.032   .     S
Er18     V23    10.034   1_556     S
V19     Er18    9.937   1_454     S
V19     Er21    9.937   .     S
V19     V16    10.037   1_554     S
V19     Er14    10.034   1_554     S
V19     V23    10.037   1_455     S
V19     Ti10    10.042   1_554     S
V20     Er17    9.937   1_455     S
V20     Er22    9.937   .     S
V20     V24    10.037   1_455     S
Er21     V23    9.937   1_455     S
Er21     V16    10.032   1_554     S
Er21     Ce7    9.985   1_455     S
Er22     V24    9.937   1_455     S
Er22     Ce8    9.985   1_455     S
V23     Er13    9.937   1_655     S
V23     Er21    9.937   1_655     S
V23     V15    10.037   1_655     S
V23     V19    10.037   1_655     S
V23     Er18    10.034   1_554     S
V24     Er14    9.937   1_655     S
V24     Er22    9.937   1_655     S
V24     V16    10.037   1_655     S
V24     V20    10.037   1_655     S
S25     S89    10.108   .     S
S26     S90    10.108   .     S
S27     Ce4    9.993   1_554     S
S27     S147    10.108   .     S
S28     S148    10.108   .     S
S29     Ti5    10.061   1_655     S
S29     S179    10.108   1_655     S
S30     Ti6    10.061   1_655     S
S30     S180    10.108   1_655     S
S31     Ce35    9.993   .     S
S31     Ti33    10.061   .     S
S31     S149    10.108   .     S
S32     Ce36    9.993   .     S
S32     Ti34    10.061   .     S
S32     S150    10.108   .     S
Ti33     Ce35    9.886   .     S
Ti33     V56    10.042   .     S
Ti34     Ce36    9.886   .     S
Ti34     V55    10.042   1_556     S
Ce35     Er45    9.985   .     S
Ce36     Er46    9.985   .     S
Ti37     Ce40    9.886   1_554     S
Ti37     V51    10.042   .     S
Ti37     S59    10.061   .     S
Ti38     Ce39    9.886   .     S
Ti38     V52    10.042   .     S
Ti38     S60    10.061   .     S
Ce39     S60    9.993   .     S
Ce39     Er53    9.985   .     S
Ce40     Ti37    9.886   1_556     S
Ce40     S59    9.993   1_556     S
Ce40     Er54    9.985   .     S
Ti41     Ce43    9.886   .     S
Ti41     V47    10.042   .     S
Ti41     S57    10.061   .     S
Ti42     Ce44    9.886   .     S
Ti42     V48    10.042   .     S
Ti42     S58    10.061   .     S
Ce43     S57    9.993   .     S
Ce43     Er49    9.985   .     S
Ce44     S58    9.993   .     S
Ce44     Er50    9.985   .     S
Er45     V51    9.937   .     S
Er45     V47    9.937   .     S
Er45     V55    10.032   .     S
Er45     V56    10.034   .     S
Er46     V52    9.937   .     S
Er46     V48    9.937   .     S
Er46     V56    10.032   .     S
Er46     V55    10.034   1_556     S
V47     Er53    9.937   .     S
V47     V51    10.037   .     S
V47     Er49    10.034   .     S
V47     V56    10.037   .     S
V47     Er50    10.032   .     S
V48     Er54    9.937   .     S
V48     V52    10.037   .     S
V48     Er50    10.034   .     S
V48     V55    10.037   1_556     S
V48     Er49    10.032   1_556     S
Er49     V55    9.937   .     S
Er49     V51    9.937   .     S
Er49     V48    10.032   1_554     S
Er50     V56    9.937   .     S
Er50     V52    9.937   .     S
V51     Er53    10.032   .     S
V51     V55    10.037   .     S
V51     Er54    10.034   1_554     S
V52     Er54    10.032   .     S
V52     V56    10.037   .     S
V52     Er53    10.034   .     S
Er53     V56    9.937   .     S
Er54     V55    9.937   1_556     S
Er54     V51    10.034   1_556     S
V55     Er54    9.937   1_554     S
V55     V48    10.037   1_554     S
V55     Er46    10.034   1_554     S
V55     Ti34    10.042   1_554     S
S57     S61    10.108   .     S
S58     S62    10.108   .     S
S59     Ce40    9.993   1_554     S
S59     S151    10.108   .     S
S60     S152    10.108   .     S
S61     Ce75    9.993   .     S
S61     Ti73    10.061   .     S
S62     Ce76    9.993   .     S
S62     Ti74    10.061   .     S
S63     Ce67    9.993   .     S
S63     Ti65    10.061   .     S
S63     S117    10.108   .     S
S64     Ce68    9.993   .     S
S64     Ti66    10.061   .     S
S64     S118    10.108   .     S
Ti65     Ce67    9.886   .     S
Ti65     V84    10.042   1_554     S
Ti66     Ce68    9.886   .     S
Ti66     V83    10.042   .     S
Ce67     Er85    9.985   .     S
Ce68     Er86    9.985   .     S
Ti69     Ce72    9.886   .     S
Ti69     V79    10.042   .     S
Ti69     S89    10.061   .     S
Ti70     Ce71    9.886   1_556     S
Ti70     V80    10.042   .     S
Ti70     S90    10.061   .     S
Ce71     Ti70    9.886   1_554     S
Ce71     Er81    9.985   .     S
Ce71     S90    9.993   1_554     S
Ce72     Er82    9.985   .     S
Ce72     S89    9.993   .     S
Ti73     Ce75    9.886   .     S
Ti73     V87    10.042   .     S
Ti74     Ce76    9.886   .     S
Ti74     V88    10.042   .     S
Ce75     Er77    9.985   .     S
Ce76     Er78    9.985   .     S
Er77     V83    9.937   .     S
Er77     V79    9.937   .     S
Er77     V88    10.032   .     S
Er77     V87    10.034   .     S
Er78     V84    9.937   .     S
Er78     V80    9.937   .     S
Er78     V87    10.032   1_556     S
Er78     V88    10.034   .     S
V79     Er85    9.937   .     S
V79     V83    10.037   .     S
V79     Er82    10.034   .     S
V79     V87    10.037   .     S
V79     Er81    10.032   .     S
V80     Er86    9.937   .     S
V80     V84    10.037   .     S
V80     Er81    10.034   1_556     S
V80     V88    10.037   .     S
V80     Er82    10.032   .     S
Er81     V87    9.937   .     S
Er81     V84    9.937   1_554     S
Er81     V80    10.034   1_554     S
Er82     V88    9.937   .     S
Er82     V83    9.937   .     S
V83     Er85    10.032   .     S
V83     V88    10.037   .     S
V83     Er86    10.034   .     S
V84     Er81    9.937   1_556     S
V84     Er86    10.032   .     S
V84     V87    10.037   1_556     S
V84     Er85    10.034   1_556     S
V84     Ti65    10.042   1_556     S
Er85     V87    9.937   .     S
Er85     V84    10.034   1_554     S
Er86     V88    9.937   .     S
V87     V84    10.037   1_554     S
V87     Er78    10.032   1_554     S
S90     Ce71    9.993   1_556     S
S91     Ce99    9.993   .     S
S91     Ti97    10.061   .     S
S91     S153    10.108   .     S
S92     Ce100    9.993   .     S
S92     Ti98    10.061   .     S
S92     S154    10.108   .     S
Ti93     Ce95    9.886   1_565     S
Ti93     V107    10.042   .     S
Ti93     S119    10.061   1_565     S
Ti94     Ce96    9.886   1_565     S
Ti94     V108    10.042   .     S
Ti94     S120    10.061   1_565     S
Ce95     Ti93    9.886   1_545     S
Ce95     S119    9.993   .     S
Ce95     Er109    9.985   1_545     S
Ce96     Ti94    9.886   1_545     S
Ce96     S120    9.993   .     S
Ce96     Er110    9.985   1_545     S
Ti97     Ce99    9.886   .     S
Ti97     V116    10.042   .     S
Ti98     Ce100    9.886   .     S
Ti98     V115    10.042   1_556     S
Ce99     Er105    9.985   .     S
Ce100     Er106    9.985   .     S
Ti101     Ce104    9.886   1_554     S
Ti101     V111    10.042   .     S
Ti101     S117    10.061   .     S
Ti102     Ce103    9.886   .     S
Ti102     V112    10.042   .     S
Ti102     S118    10.061   .     S
Ce103     S118    9.993   .     S
Ce103     Er113    9.985   .     S
Ce104     Ti101    9.886   1_556     S
Ce104     S117    9.993   1_556     S
Ce104     Er114    9.985   .     S
Er105     V111    9.937   1_565     S
Er105     V107    9.937   .     S
Er105     V115    10.032   .     S
Er105     V116    10.034   .     S
Er106     V112    9.937   1_565     S
Er106     V108    9.937   .     S
Er106     V116    10.032   .     S
Er106     V115    10.034   1_556     S
V107     Er113    9.937   1_565     S
V107     V111    10.037   1_565     S
V107     Er109    10.034   .     S
V107     V116    10.037   .     S
V107     Er110    10.032   .     S
V108     Er114    9.937   1_565     S
V108     V112    10.037   1_565     S
V108     Er110    10.034   .     S
V108     V115    10.037   1_556     S
V108     Er109    10.032   1_556     S
Er109     V115    9.937   .     S
Er109     V111    9.937   1_565     S
Er109     V108    10.032   1_554     S
Er109     Ce95    9.985   1_565     S
Er110     V116    9.937   .     S
Er110     V112    9.937   1_565     S
Er110     Ce96    9.985   1_565     S
V111     Er105    9.937   1_545     S
V111     Er109    9.937   1_545     S
V111     V107    10.037   1_545     S
V111     Er113    10.032   .     S
V111     V115    10.037   1_545     S
V111     Er114    10.034   1_554     S
V112     Er106    9.937   1_545     S
V112     Er110    9.937   1_545     S
V112     V108    10.037   1_545     S
V112     Er114    10.032   .     S
V112     V116    10.037   1_545     S
V112     Er113    10.034   .     S
Er113     V107    9.937   1_545     S
Er113     V116    9.937   1_545     S
Er114     V108    9.937   1_545     S
Er114     V115    9.937   1_546     S
Er114     V111    10.034   1_556     S
V115     Er114    9.937   1_564     S
V115     V111    10.037   1_565     S
V115     V108    10.037   1_554     S
V115     Er106    10.034   1_554     S
V115     Ti98    10.042   1_554     S
V116     Er113    9.937   1_565     S
V116     V112    10.037   1_565     S
S117     Ce104    9.993   1_554     S
S119     Ti93    10.061   1_545     S
S119     S145    10.108   1_545     S
S120     Ti94    10.061   1_545     S
S120     S146    10.108   1_545     S
Ti121     Ce123    9.886   1_545     S
Ti121     V143    10.042   .     S
Ti121     S145    10.061   1_545     S
Ti122     Ce124    9.886   1_545     S
Ti122     V144    10.042   .     S
Ti122     S146    10.061   1_545     S
Ce123     Ti121    9.886   1_565     S
Ce123     S145    9.993   .     S
Ce123     Er133    9.985   1_565     S
Ce124     Ti122    9.886   1_565     S
Ce124     S146    9.993   .     S
Ce124     Er134    9.985   1_565     S
Ti125     Ce127    9.886   .     S
Ti125     V140    10.042   1_554     S
Ti125     S147    10.061   .     S
Ti126     Ce128    9.886   .     S
Ti126     V139    10.042   .     S
Ti126     S148    10.061   .     S
Ce127     S147    9.993   .     S
Ce127     Er141    9.985   .     S
Ce128     S148    9.993   .     S
Ce128     Er142    9.985   .     S
Ti129     Ce132    9.886   .     S
Ti129     V135    10.042   .     S
Ti129     S149    10.061   .     S
Ti130     Ce131    9.886   1_556     S
Ti130     V136    10.042   .     S
Ti130     S150    10.061   .     S
Ce131     Ti130    9.886   1_554     S
Ce131     S150    9.993   1_554     S
Ce131     Er137    9.985   .     S
Ce132     S149    9.993   .     S
Ce132     Er138    9.985   .     S
Er133     V139    9.937   .     S
Er133     V135    9.937   1_545     S
Er133     V144    10.032   .     S
Er133     V143    10.034   .     S
Er133     Ce123    9.985   1_545     S
Er134     V140    9.937   .     S
Er134     V136    9.937   1_545     S
Er134     V143    10.032   1_556     S
Er134     V144    10.034   .     S
Er134     Ce124    9.985   1_545     S
V135     Er133    9.937   1_565     S
V135     Er141    9.937   1_565     S
V135     V139    10.037   1_565     S
V135     Er138    10.034   .     S
V135     V143    10.037   1_565     S
V135     Er137    10.032   .     S
V136     Er134    9.937   1_565     S
V136     Er142    9.937   1_565     S
V136     V140    10.037   1_565     S
V136     Er137    10.034   1_556     S
V136     V144    10.037   1_565     S
V136     Er138    10.032   .     S
Er137     V143    9.937   1_565     S
Er137     V140    9.937   1_564     S
Er137     V136    10.034   1_554     S
Er138     V144    9.937   1_565     S
Er138     V139    9.937   1_565     S
V139     Er138    9.937   1_545     S
V139     V135    10.037   1_545     S
V139     Er141    10.032   .     S
V139     V144    10.037   .     S
V139     Er142    10.034   .     S
V140     Er137    9.937   1_546     S
V140     V136    10.037   1_545     S
V140     Er142    10.032   .     S
V140     V143    10.037   1_556     S
V140     Er141    10.034   1_556     S
V140     Ti125    10.042   1_556     S
Er141     V135    9.937   1_545     S
Er141     V143    9.937   .     S
Er141     V140    10.034   1_554     S
Er142     V136    9.937   1_545     S
Er142     V144    9.937   .     S
V143     Er137    9.937   1_545     S
V143     V140    10.037   1_554     S
V143     Er134    10.032   1_554     S
V143     V135    10.037   1_545     S
V144     Er138    9.937   1_545     S
V144     V136    10.037   1_545     S
S145     Ti121    10.061   1_565     S
S145     S119    10.108   1_565     S
S146     Ti122    10.061   1_565     S
S146     S120    10.108   1_565     S
S150     Ce131    9.993   1_556     S
S151     Ce165    9.993   .     S
S151     Ti163    10.061   .     S
S152     Ce166    9.993   .     S
S152     Ti164    10.061   .     S
S153     Ce158    9.993   .     S
S153     Ti155    10.061   .     S
S154     Ce157    9.993   1_556     S
S154     Ti156    10.061   .     S
Ti155     Ce158    9.886   .     S
Ti155     V173    10.042   .     S
Ti156     Ce157    9.886   1_556     S
Ti156     V174    10.042   .     S
Ce157     Ti156    9.886   1_554     S
Ce157     S154    9.993   1_554     S
Ce157     Er175    9.985   .     S
Ce158     Er176    9.985   .     S
Ti159     Ce161    9.886   1_655     S
Ti159     V169    10.042   .     S
Ti159     S179    10.061   1_655     S
Ti160     Ce162    9.886   1_655     S
Ti160     V170    10.042   .     S
Ti160     S180    10.061   1_655     S
Ce161     Ti159    9.886   1_455     S
Ce161     Er171    9.985   1_455     S
Ce161     S179    9.993   .     S
Ce162     Ti160    9.886   1_455     S
Ce162     Er172    9.985   1_455     S
Ce162     S180    9.993   .     S
Ti163     Ce165    9.886   .     S
Ti163     V178    10.042   1_554     S
Ti164     Ce166    9.886   .     S
Ti164     V177    10.042   .     S
Ce165     Er167    9.985   .     S
Ce166     Er168    9.985   .     S
Er167     V173    9.937   1_655     S
Er167     V169    9.937   .     S
Er167     V177    10.032   .     S
Er167     V178    10.034   1_554     S
Er168     V174    9.937   1_655     S
Er168     V170    9.937   .     S
Er168     V178    10.032   .     S
Er168     V177    10.034   .     S
V169     Er175    9.937   1_655     S
V169     V173    10.037   1_655     S
V169     Er171    10.034   .     S
V169     V178    10.037   1_554     S
V169     Er172    10.032   1_554     S
V170     Er176    9.937   1_655     S
V170     V174    10.037   1_655     S
V170     Er172    10.034   .     S
V170     V177    10.037   .     S
V170     Er171    10.032   .     S
Er171     V177    9.937   .     S
Er171     V173    9.937   1_655     S
Er171     Ce161    9.985   1_655     S
Er172     V178    9.937   .     S
Er172     V174    9.937   1_655     S
Er172     V169    10.032   1_556     S
Er172     Ce162    9.985   1_655     S
V173     Er167    9.937   1_455     S
V173     Er171    9.937   1_455     S
V173     V169    10.037   1_455     S
V173     Er175    10.032   .     S
V173     V177    10.037   1_455     S
V173     Er176    10.034   .     S
V174     Er168    9.937   1_455     S
V174     Er172    9.937   1_455     S
V174     V170    10.037   1_455     S
V174     Er176    10.032   .     S
V174     V178    10.037   1_455     S
V174     Er175    10.034   1_556     S
Er175     V169    9.937   1_455     S
Er175     V178    9.937   1_454     S
Er175     V174    10.034   1_554     S
Er176     V170    9.937   1_455     S
Er176     V177    9.937   1_455     S
V177     Er176    9.937   1_655     S
V177     V173    10.037   1_655     S
V178     Er175    9.937   1_656     S
V178     V174    10.037   1_655     S
V178     V169    10.037   1_556     S
V178     Er167    10.034   1_556     S
V178     Ti163    10.042   1_556     S
S179     Ti159    10.061   1_455     S
S179     S29    10.108   1_455     S
S180     Ti160    10.061   1_455     S
S180     S30    10.108   1_455     S
