data_msh
_audit_creation_date              2019-12-31
_audit_creation_method            'Pymatgen'
_symmetry_space_group_name_H-M    'P1'
_symmetry_Int_Tables_number       1
loop_
_symmetry_equiv_pos_as_xyz
  x,y,z
_cell_length_a                    116.2633
_cell_length_b                    116.2633
_cell_length_c                    39.1142
_cell_angle_alpha                 90.0
_cell_angle_beta                 90.0
_cell_angle_gamma                 120.0
loop_
_atom_site_label
_atom_site_type_symbol
_atom_site_fract_x
_atom_site_fract_y
_atom_site_fract_z
Ce1     Ce     0.7244   0.9052   0.1238
Ce2     Ce     0.7244   0.9052   0.6238
Ce3     Ce     0.8475   0.6089   0.2905
Ce4     Ce     0.8475   0.6089   0.7905
Ce5     Ce     0.8475   0.2385   0.2905
Ce6     Ce     0.8475   0.2385   0.7905
Ce7     Ce     0.7615   0.1525   0.2905
Ce8     Ce     0.7615   0.1525   0.7905
Er9     Er     0.6657   0.9438   0.0833
Er10     Er     0.6657   0.9438   0.5833
V11     V     0.7047   0.0373   0.0
V12     V     0.7047   0.0373   0.5
Er13     Er     0.6115   0.001   0.4167
Er14     Er     0.6115   0.001   0.9167
V15     V     0.666   0.962   0.3333
V16     V     0.666   0.962   0.8333
Er17     Er     0.7228   0.0551   0.25
Er18     Er     0.7228   0.0551   0.75
V19     V     0.6294   0.0007   0.1667
V20     V     0.6294   0.0007   0.6667
Ce21     Ce     0.0577   0.5719   0.4571
Ce22     Ce     0.0577   0.5719   0.9571
Ce23     Ce     0.0577   0.4859   0.4571
Ce24     Ce     0.0577   0.4859   0.9571
Ce25     Ce     0.0948   0.2756   0.1238
Ce26     Ce     0.0948   0.2756   0.6238
Er27     Er     0.0561   0.3343   0.0833
Er28     Er     0.0561   0.3343   0.5833
V29     V     0.9627   0.2953   0.0
V30     V     0.9627   0.2953   0.5
Er31     Er     0.9449   0.2772   0.25
Er32     Er     0.9449   0.2772   0.75
V33     V     0.9993   0.3706   0.1667
V34     V     0.9993   0.3706   0.6667
Er35     Er     0.999   0.3885   0.4167
Er36     Er     0.999   0.3885   0.9167
V37     V     0.038   0.334   0.3333
V38     V     0.038   0.334   0.8333
Ce39     Ce     0.5141   0.9423   0.4571
Ce40     Ce     0.5141   0.9423   0.9571
Ce41     Ce     0.4281   0.9423   0.4571
Ce42     Ce     0.4281   0.9423   0.9571
Er43     Er     0.3323   0.0551   0.25
Er44     Er     0.3323   0.0551   0.75
V45     V     0.3713   0.0007   0.1667
V46     V     0.3713   0.0007   0.6667
Er47     Er     0.2782   0.9438   0.0833
Er48     Er     0.2782   0.9438   0.5833
V49     V     0.3326   0.0373   0.0
V50     V     0.3326   0.0373   0.5
Er51     Er     0.3895   0.001   0.4167
Er52     Er     0.3895   0.001   0.9167
V53     V     0.296   0.962   0.3333
V54     V     0.296   0.962   0.8333
Ce55     Ce     0.1808   0.9052   0.1238
Ce56     Ce     0.1808   0.9052   0.6238
Ce57     Ce     0.0948   0.8192   0.1238
Ce58     Ce     0.0948   0.8192   0.6238
Er59     Er     0.9449   0.6677   0.25
Er60     Er     0.9449   0.6677   0.75
V61     V     0.9993   0.6287   0.1667
V62     V     0.9993   0.6287   0.6667
Er63     Er     0.999   0.6105   0.4167
Er64     Er     0.999   0.6105   0.9167
V65     V     0.038   0.704   0.3333
V66     V     0.038   0.704   0.8333
Er67     Er     0.0561   0.7218   0.0833
Er68     Er     0.0561   0.7218   0.5833
V69     V     0.9627   0.6674   0.0
V70     V     0.9627   0.6674   0.5
Ce71     Ce     0.7615   0.6089   0.2905
Ce72     Ce     0.7615   0.6089   0.7905
Ce73     Ce     0.7244   0.8192   0.1238
Ce74     Ce     0.7244   0.8192   0.6238
Er75     Er     0.6657   0.7218   0.0833
Er76     Er     0.6657   0.7218   0.5833
V77     V     0.7047   0.6674   0.0
V78     V     0.7047   0.6674   0.5
Er79     Er     0.6115   0.6105   0.4167
Er80     Er     0.6115   0.6105   0.9167
V81     V     0.666   0.704   0.3333
V82     V     0.666   0.704   0.8333
Er83     Er     0.7228   0.6677   0.25
Er84     Er     0.7228   0.6677   0.75
V85     V     0.6294   0.6287   0.1667
V86     V     0.6294   0.6287   0.6667
Ce87     Ce     0.1808   0.2756   0.1238
Ce88     Ce     0.1808   0.2756   0.6238
Ce89     Ce     0.5141   0.5719   0.4571
Ce90     Ce     0.5141   0.5719   0.9571
Ce91     Ce     0.4281   0.4859   0.4571
Ce92     Ce     0.4281   0.4859   0.9571
Ce93     Ce     0.3911   0.1525   0.2905
Ce94     Ce     0.3911   0.1525   0.7905
Ce95     Ce     0.3911   0.2385   0.2905
Ce96     Ce     0.3911   0.2385   0.7905
Er97     Er     0.2782   0.3343   0.0833
Er98     Er     0.2782   0.3343   0.5833
V99     V     0.3327   0.2953   0.0
V100     V     0.3327   0.2953   0.5
Er101     Er     0.3895   0.3885   0.4167
Er102     Er     0.3895   0.3885   0.9167
V103     V     0.296   0.334   0.3333
V104     V     0.296   0.334   0.8333
Er105     Er     0.3323   0.2772   0.25
Er106     Er     0.3323   0.2772   0.75
V107     V     0.3713   0.3706   0.1667
V108     V     0.3713   0.3706   0.6667
Ti109     Ti     0.7909   0.1231   0.4964
Ti110     Ti     0.7909   0.1231   0.9964
Ti111     Ti     0.8769   0.2091   0.4964
Ti112     Ti     0.8769   0.2091   0.9964
Ti113     Ti     0.4576   0.0011   0.1631
Ti114     Ti     0.4576   0.0011   0.6631
Ti115     Ti     0.9989   0.5424   0.1631
Ti116     Ti     0.9989   0.5424   0.6631
Ti117     Ti     0.1242   0.3345   0.3298
Ti118     Ti     0.1242   0.3345   0.8298
Ti119     Ti     0.6655   0.8758   0.3298
Ti120     Ti     0.6655   0.8758   0.8298
Ti121     Ti     0.9989   0.4564   0.1631
Ti122     Ti     0.9989   0.4564   0.6631
Ti123     Ti     0.5436   0.0011   0.1631
Ti124     Ti     0.5436   0.0011   0.6631
Ti125     Ti     0.2102   0.3345   0.3298
Ti126     Ti     0.2102   0.3345   0.8298
Ti127     Ti     0.6655   0.7898   0.3298
Ti128     Ti     0.6655   0.7898   0.8298
Ti129     Ti     0.2102   0.8758   0.3298
Ti130     Ti     0.2102   0.8758   0.8298
Ti131     Ti     0.1242   0.7898   0.3298
Ti132     Ti     0.1242   0.7898   0.8298
Ti133     Ti     0.5436   0.5424   0.1631
Ti134     Ti     0.5436   0.5424   0.6631
Ti135     Ti     0.4576   0.4564   0.1631
Ti136     Ti     0.4576   0.4564   0.6631
Ti137     Ti     0.3322   0.1231   0.4964
Ti138     Ti     0.3322   0.1231   0.9964
Ti139     Ti     0.8769   0.6678   0.4964
Ti140     Ti     0.8769   0.6678   0.9964
Ti141     Ti     0.3322   0.2091   0.4964
Ti142     Ti     0.3322   0.2091   0.9964
Ti143     Ti     0.7909   0.6678   0.4964
Ti144     Ti     0.7909   0.6678   0.9964
loop_
_geom_bond_atom_site_label_1
_geom_bond_atom_site_label_2
_geom_bond_distance
_geom_bond_site_symmetry_2
_ccdc_geom_bond_type
Ce1     Ce73    10.0   .     S
Ce1     Ti119    10.0   .     S
Ce1     Er9    10.0   .     S
Ce2     Ce74    10.0   .     S
Ce2     Ti120    10.0   .     S
Ce2     Er10    10.0   .     S
Ce3     Ce71    10.0   .     S
Ce3     Ti139    10.0   .     S
Ce3     Er59    10.0   .     S
Ce4     Ce72    10.0   .     S
Ce4     Ti140    10.0   .     S
Ce4     Er60    10.0   .     S
Ce5     Ce7    10.0   .     S
Ce5     Ti111    10.0   .     S
Ce5     Er31    10.0   .     S
Ce6     Ce8    10.0   .     S
Ce6     Ti112    10.0   .     S
Ce6     Er32    10.0   .     S
Ce7     Ti109    10.0   .     S
Ce7     Er17    10.0   .     S
Ce8     Ti110    10.0   .     S
Ce8     Er18    10.0   .     S
Er9     V19    9.999   1_565     S
Er9     V11    9.999   1_565     S
Er9     V15    10.0   .     S
Er9     V16    10.0   1_554     S
Er10     V20    9.999   1_565     S
Er10     V12    9.999   1_565     S
Er10     V16    10.0   .     S
Er10     V15    10.0   .     S
V11     V19    10.0   .     S
V11     Er9    9.999   1_545     S
V11     Ti110    10.0   1_554     S
V11     Er14    9.999   1_554     S
V11     V16    10.0   1_544     S
V11     Er18    10.0   1_554     S
V11     Er17    10.0   .     S
V12     V20    10.0   .     S
V12     Er10    9.999   1_545     S
V12     Ti109    10.0   .     S
V12     Er13    9.999   .     S
V12     V15    10.0   1_545     S
V12     Er17    10.0   .     S
V12     Er18    10.0   .     S
Er13     V15    9.999   1_545     S
Er13     V20    10.0   .     S
Er13     V19    10.0   .     S
Er13     Ce39    10.0   1_545     S
Er14     V11    9.999   1_556     S
Er14     V16    9.999   1_545     S
Er14     V19    10.0   1_556     S
Er14     V20    10.0   .     S
Er14     Ce40    10.0   1_545     S
V15     V12    10.0   1_565     S
V15     Er13    9.999   1_565     S
V15     Ti119    10.0   .     S
V15     Er17    9.999   1_565     S
V15     V19    10.0   1_565     S
V16     V11    10.0   1_566     S
V16     Er14    9.999   1_565     S
V16     Ti120    10.0   .     S
V16     Er18    9.999   1_565     S
V16     V20    10.0   1_565     S
V16     Er9    10.0   1_556     S
Er17     V15    9.999   1_545     S
Er17     V19    9.999   .     S
Er18     V16    9.999   1_545     S
Er18     V20    9.999   .     S
Er18     V11    10.0   1_556     S
V19     Er9    9.999   1_545     S
V19     Er14    10.0   1_554     S
V19     V15    10.0   1_545     S
V19     Ti123    10.0   .     S
V20     Er10    9.999   1_545     S
V20     V16    10.0   1_545     S
V20     Ti124    10.0   .     S
Ce21     Ce23    10.0   .     S
Ce21     Ti116    10.0   1_455     S
Ce21     Er63    10.0   1_455     S
Ce22     Ce24    10.0   .     S
Ce22     Ti115    10.0   1_456     S
Ce22     Er64    10.0   1_455     S
Ce23     Ti122    10.0   1_455     S
Ce23     Er35    10.0   1_455     S
Ce24     Ti121    10.0   1_456     S
Ce24     Er36    10.0   1_455     S
Ce25     Ti117    10.0   .     S
Ce25     Er27    10.0   .     S
Ce25     Ce87    10.0   .     S
Ce26     Ti118    10.0   .     S
Ce26     Er28    10.0   .     S
Ce26     Ce88    10.0   .     S
Er27     V33    9.999   1_455     S
Er27     V29    9.999   1_455     S
Er27     V37    10.0   .     S
Er27     V38    10.0   1_554     S
Er28     V34    9.999   1_455     S
Er28     V30    9.999   1_455     S
Er28     V38    10.0   .     S
Er28     V37    10.0   .     S
V29     V33    10.0   .     S
V29     Er27    9.999   1_655     S
V29     Ti112    10.0   1_554     S
V29     Er32    10.0   1_554     S
V29     Er36    9.999   1_554     S
V29     V38    10.0   1_654     S
V29     Er31    10.0   .     S
V30     V34    10.0   .     S
V30     Er28    9.999   1_655     S
V30     Ti111    10.0   .     S
V30     Er31    10.0   .     S
V30     Er35    9.999   .     S
V30     V37    10.0   1_655     S
V30     Er32    10.0   .     S
Er31     V37    9.999   1_655     S
Er31     V33    9.999   .     S
Er32     V38    9.999   1_655     S
Er32     V34    9.999   .     S
Er32     V29    10.0   1_556     S
V33     Er27    9.999   1_655     S
V33     V37    10.0   1_655     S
V33     Ti121    10.0   .     S
V33     Er36    10.0   1_554     S
V33     Er35    10.0   .     S
V34     Er28    9.999   1_655     S
V34     V38    10.0   1_655     S
V34     Ti122    10.0   .     S
V34     Er35    10.0   .     S
V34     Er36    10.0   .     S
Er35     V37    9.999   1_655     S
Er35     Ce23    10.0   1_655     S
Er36     V29    9.999   1_556     S
Er36     V38    9.999   1_655     S
Er36     V33    10.0   1_556     S
Er36     Ce24    10.0   1_655     S
V37     Er31    9.999   1_455     S
V37     V33    10.0   1_455     S
V37     V30    10.0   1_455     S
V37     Er35    9.999   1_455     S
V37     Ti117    10.0   .     S
V38     Er32    9.999   1_455     S
V38     V34    10.0   1_455     S
V38     V29    10.0   1_456     S
V38     Er36    9.999   1_455     S
V38     Ti118    10.0   .     S
V38     Er27    10.0   1_556     S
Ce39     Er13    10.0   1_565     S
Ce39     Ce41    10.0   .     S
Ce39     Ti124    10.0   1_565     S
Ce40     Er14    10.0   1_565     S
Ce40     Ce42    10.0   .     S
Ce40     Ti123    10.0   1_566     S
Ce41     Ti114    10.0   1_565     S
Ce41     Er51    10.0   1_565     S
Ce42     Ti113    10.0   1_566     S
Ce42     Er52    10.0   1_565     S
Er43     V53    9.999   1_545     S
Er43     V45    9.999   .     S
Er43     V50    10.0   .     S
Er43     V49    10.0   .     S
Er43     Ce93    10.0   .     S
Er44     V54    9.999   1_545     S
Er44     V46    9.999   .     S
Er44     V49    10.0   1_556     S
Er44     V50    10.0   .     S
Er44     Ce94    10.0   .     S
V45     V53    10.0   1_545     S
V45     Ti113    10.0   .     S
V45     Er47    9.999   1_545     S
V45     V49    10.0   .     S
V45     Er52    10.0   1_554     S
V45     Er51    10.0   .     S
V46     V54    10.0   1_545     S
V46     Ti114    10.0   .     S
V46     Er48    9.999   1_545     S
V46     V50    10.0   .     S
V46     Er51    10.0   .     S
V46     Er52    10.0   .     S
Er47     V45    9.999   1_565     S
Er47     V49    9.999   1_565     S
Er47     V53    10.0   .     S
Er47     V54    10.0   1_554     S
Er47     Ce55    10.0   .     S
Er48     V46    9.999   1_565     S
Er48     V50    9.999   1_565     S
Er48     V54    10.0   .     S
Er48     V53    10.0   .     S
Er48     Ce56    10.0   .     S
V49     Er44    10.0   1_554     S
V49     Er47    9.999   1_545     S
V49     Ti138    10.0   1_554     S
V49     Er52    9.999   1_554     S
V49     V54    10.0   1_544     S
V50     Er48    9.999   1_545     S
V50     Ti137    10.0   .     S
V50     Er51    9.999   .     S
V50     V53    10.0   1_545     S
Er51     V53    9.999   1_545     S
Er51     Ce41    10.0   1_545     S
Er52     V49    9.999   1_556     S
Er52     V54    9.999   1_545     S
Er52     V45    10.0   1_556     S
Er52     Ce42    10.0   1_545     S
V53     Er43    9.999   1_565     S
V53     V45    10.0   1_565     S
V53     V50    10.0   1_565     S
V53     Er51    9.999   1_565     S
V53     Ti129    10.0   .     S
V54     Er44    9.999   1_565     S
V54     V46    10.0   1_565     S
V54     V49    10.0   1_566     S
V54     Er52    9.999   1_565     S
V54     Ti130    10.0   .     S
V54     Er47    10.0   1_556     S
Ce55     Ce57    10.0   .     S
Ce55     Ti129    10.0   .     S
Ce56     Ce58    10.0   .     S
Ce56     Ti130    10.0   .     S
Ce57     Ti131    10.0   .     S
Ce57     Er67    10.0   .     S
Ce58     Ti132    10.0   .     S
Ce58     Er68    10.0   .     S
Er59     V65    9.999   1_655     S
Er59     V61    9.999   .     S
Er59     V70    10.0   .     S
Er59     V69    10.0   .     S
Er60     V66    9.999   1_655     S
Er60     V62    9.999   .     S
Er60     V69    10.0   1_556     S
Er60     V70    10.0   .     S
V61     V65    10.0   1_655     S
V61     Ti115    10.0   .     S
V61     Er64    10.0   1_554     S
V61     Er67    9.999   1_655     S
V61     V69    10.0   .     S
V61     Er63    10.0   .     S
V62     V66    10.0   1_655     S
V62     Ti116    10.0   .     S
V62     Er63    10.0   .     S
V62     Er68    9.999   1_655     S
V62     V70    10.0   .     S
V62     Er64    10.0   .     S
Er63     V70    9.999   .     S
Er63     V65    9.999   1_655     S
Er63     Ce21    10.0   1_655     S
Er64     V69    9.999   1_556     S
Er64     V66    9.999   1_655     S
Er64     V61    10.0   1_556     S
Er64     Ce22    10.0   1_655     S
V65     Er59    9.999   1_455     S
V65     V61    10.0   1_455     S
V65     V70    10.0   1_455     S
V65     Er63    9.999   1_455     S
V65     Ti131    10.0   .     S
V65     Er67    10.0   .     S
V65     Er68    10.0   .     S
V66     Er60    9.999   1_455     S
V66     V62    10.0   1_455     S
V66     V69    10.0   1_456     S
V66     Er64    9.999   1_455     S
V66     Ti132    10.0   .     S
V66     Er68    10.0   .     S
V66     Er67    10.0   1_556     S
Er67     V61    9.999   1_455     S
Er67     V69    9.999   1_455     S
Er67     V66    10.0   1_554     S
Er68     V62    9.999   1_455     S
Er68     V70    9.999   1_455     S
V69     Er60    10.0   1_554     S
V69     Er64    9.999   1_554     S
V69     V66    10.0   1_654     S
V69     Er67    9.999   1_655     S
V69     Ti140    10.0   1_554     S
V70     V65    10.0   1_655     S
V70     Er68    9.999   1_655     S
V70     Ti139    10.0   .     S
Ce71     Ti143    10.0   .     S
Ce71     Er83    10.0   .     S
Ce72     Ti144    10.0   .     S
Ce72     Er84    10.0   .     S
Ce73     Ti127    10.0   .     S
Ce73     Er75    10.0   .     S
Ce74     Ti128    10.0   .     S
Ce74     Er76    10.0   .     S
Er75     V85    9.999   .     S
Er75     V77    9.999   .     S
Er75     V81    10.0   .     S
Er75     V82    10.0   1_554     S
Er76     V86    9.999   .     S
Er76     V78    9.999   .     S
Er76     V82    10.0   .     S
Er76     V81    10.0   .     S
V77     V85    10.0   .     S
V77     Ti144    10.0   1_554     S
V77     Er80    9.999   1_554     S
V77     V82    10.0   1_554     S
V77     Er84    10.0   1_554     S
V77     Er83    10.0   .     S
V78     V86    10.0   .     S
V78     Ti143    10.0   .     S
V78     Er79    9.999   .     S
V78     V81    10.0   .     S
V78     Er83    10.0   .     S
V78     Er84    10.0   .     S
Er79     V81    9.999   .     S
Er79     V86    10.0   .     S
Er79     V85    10.0   .     S
Er79     Ce89    10.0   .     S
Er80     V77    9.999   1_556     S
Er80     V82    9.999   .     S
Er80     V85    10.0   1_556     S
Er80     V86    10.0   .     S
Er80     Ce90    10.0   .     S
V81     Ti127    10.0   .     S
V81     Er83    9.999   .     S
V81     V85    10.0   .     S
V82     V77    10.0   1_556     S
V82     Ti128    10.0   .     S
V82     Er84    9.999   .     S
V82     V86    10.0   .     S
V82     Er75    10.0   1_556     S
Er83     V85    9.999   .     S
Er84     V86    9.999   .     S
Er84     V77    10.0   1_556     S
V85     Er80    10.0   1_554     S
V85     Ti133    10.0   .     S
V86     Ti134    10.0   .     S
Ce87     Ti125    10.0   .     S
Ce87     Er97    10.0   .     S
Ce88     Ti126    10.0   .     S
Ce88     Er98    10.0   .     S
Ce89     Ce91    10.0   .     S
Ce89     Ti134    10.0   .     S
Ce90     Ce92    10.0   .     S
Ce90     Ti133    10.0   1_556     S
Ce91     Ti136    10.0   .     S
Ce91     Er101    10.0   .     S
Ce92     Ti135    10.0   1_556     S
Ce92     Er102    10.0   .     S
Ce93     Ce95    10.0   .     S
Ce93     Ti137    10.0   .     S
Ce94     Ce96    10.0   .     S
Ce94     Ti138    10.0   .     S
Ce95     Ti141    10.0   .     S
Ce95     Er105    10.0   .     S
Ce96     Ti142    10.0   .     S
Ce96     Er106    10.0   .     S
Er97     V107    9.999   .     S
Er97     V99    9.999   .     S
Er97     V103    10.0   .     S
Er97     V104    10.0   1_554     S
Er98     V108    9.999   .     S
Er98     V100    9.999   .     S
Er98     V104    10.0   .     S
Er98     V103    10.0   .     S
V99     V107    10.0   .     S
V99     Ti142    10.0   1_554     S
V99     Er102    9.999   1_554     S
V99     V104    10.0   1_554     S
V99     Er106    10.0   1_554     S
V99     Er105    10.0   .     S
V100     V108    10.0   .     S
V100     Ti141    10.0   .     S
V100     Er101    9.999   .     S
V100     V103    10.0   .     S
V100     Er105    10.0   .     S
V100     Er106    10.0   .     S
Er101     V103    9.999   .     S
Er101     V108    10.0   .     S
Er101     V107    10.0   .     S
Er102     V99    9.999   1_556     S
Er102     V104    9.999   .     S
Er102     V107    10.0   1_556     S
Er102     V108    10.0   .     S
V103     Ti125    10.0   .     S
V103     Er105    9.999   .     S
V103     V107    10.0   .     S
V104     V99    10.0   1_556     S
V104     Ti126    10.0   .     S
V104     Er106    9.999   .     S
V104     V108    10.0   .     S
V104     Er97    10.0   1_556     S
Er105     V107    9.999   .     S
Er106     V108    9.999   .     S
Er106     V99    10.0   1_556     S
V107     Er102    10.0   1_554     S
V107     Ti135    10.0   .     S
V108     Ti136    10.0   .     S
Ti109     Ti111    10.001   .     S
Ti110     V11    10.0   1_556     S
Ti110     Ti112    10.001   .     S
Ti112     V29    10.0   1_556     S
Ti113     Ce42    10.0   1_544     S
Ti113     Ti123    10.001   .     S
Ti114     Ce41    10.0   1_545     S
Ti114     Ti124    10.001   .     S
Ti115     Ce22    10.0   1_654     S
Ti115     Ti121    10.001   .     S
Ti116     Ce21    10.0   1_655     S
Ti116     Ti122    10.001   .     S
Ti117     Ti125    10.001   .     S
Ti118     Ti126    10.001   .     S
Ti119     Ti127    10.001   .     S
Ti120     Ti128    10.001   .     S
Ti121     Ce24    10.0   1_654     S
Ti122     Ce23    10.0   1_655     S
Ti123     Ce40    10.0   1_544     S
Ti124     Ce39    10.0   1_545     S
Ti129     Ti131    10.001   .     S
Ti130     Ti132    10.001   .     S
Ti133     Ce90    10.0   1_554     S
Ti133     Ti135    10.001   .     S
Ti134     Ti136    10.001   .     S
Ti135     Ce92    10.0   1_554     S
Ti137     Ti141    10.001   .     S
Ti138     V49    10.0   1_556     S
Ti138     Ti142    10.001   .     S
Ti139     Ti143    10.001   .     S
Ti140     V69    10.0   1_556     S
Ti140     Ti144    10.001   .     S
Ti142     V99    10.0   1_556     S
Ti144     V77    10.0   1_556     S
