data_msi
_audit_creation_date              2019-12-31
_audit_creation_method            'Pymatgen'
_symmetry_space_group_name_H-M    'P1'
_symmetry_Int_Tables_number       1
loop_
_symmetry_equiv_pos_as_xyz
  x,y,z
_cell_length_a                    100.0623
_cell_length_b                    100.0623
_cell_length_c                    39.114
_cell_angle_alpha                 90.0
_cell_angle_beta                 90.0
_cell_angle_gamma                 120.0
loop_
_atom_site_label
_atom_site_type_symbol
_atom_site_fract_x
_atom_site_fract_y
_atom_site_fract_z
Ti1     Ti     0.4239   0.5673   0.1689
Ti2     Ti     0.4239   0.5673   0.6689
Ce3     Ce     0.4162   0.5837   0.4191
Ce4     Ce     0.4162   0.5837   0.9191
Ti5     Ti     0.5673   0.4239   0.3311
Ti6     Ti     0.5673   0.4239   0.8311
Ce7     Ce     0.5837   0.4162   0.0809
Ce8     Ce     0.5837   0.4162   0.5809
S9     S     0.4691   0.5268   0.4979
S10     S     0.4691   0.5268   0.9979
S11     S     0.5268   0.4691   0.0021
S12     S     0.5268   0.4691   0.5021
Er13     Er     0.7413   0.3709   0.0049
Er14     Er     0.7413   0.3709   0.5049
V15     V     0.6416   0.2828   0.4216
V16     V     0.6416   0.2828   0.9216
Er17     Er     0.6296   0.2587   0.1716
Er18     Er     0.6296   0.2587   0.6716
V19     V     0.6412   0.3584   0.0882
V20     V     0.6412   0.3584   0.5882
V21     V     0.7172   0.3588   0.2549
V22     V     0.7172   0.3588   0.7549
Er23     Er     0.6291   0.3704   0.3382
Er24     Er     0.6291   0.3704   0.8382
Ti25     Ti     0.8566   0.4327   0.4977
Ti26     Ti     0.8566   0.4327   0.9977
Ce27     Ce     0.8325   0.4163   0.2475
Ce28     Ce     0.8325   0.4163   0.7475
Ti29     Ti     0.1434   0.5761   0.3356
Ti30     Ti     0.1434   0.5761   0.8356
Ce31     Ce     0.1675   0.5837   0.0858
Ce32     Ce     0.1675   0.5837   0.5858
S33     S     0.0577   0.5309   0.1645
S34     S     0.0577   0.5309   0.6645
S35     S     0.9423   0.4732   0.1688
S36     S     0.9423   0.4732   0.6688
Er37     Er     0.3709   0.7413   0.4951
Er38     Er     0.3709   0.7413   0.9951
V39     V     0.2828   0.6416   0.0784
V40     V     0.2828   0.6416   0.5784
V41     V     0.3587   0.7172   0.2451
V42     V     0.3587   0.7172   0.7451
Er43     Er     0.3704   0.6291   0.1618
Er44     Er     0.3704   0.6291   0.6618
V45     V     0.3584   0.6412   0.4118
V46     V     0.3584   0.6412   0.9118
Er47     Er     0.2587   0.6295   0.3284
Er48     Er     0.2587   0.6295   0.8284
Ti49     Ti     0.5761   0.1434   0.1644
Ti50     Ti     0.5761   0.1434   0.6644
Ce51     Ce     0.5838   0.1675   0.4142
Ce52     Ce     0.5838   0.1675   0.9142
Ti53     Ti     0.4327   0.8566   0.0023
Ti54     Ti     0.4327   0.8566   0.5023
Ce55     Ce     0.4163   0.8325   0.2525
Ce56     Ce     0.4163   0.8325   0.7525
S57     S     0.4732   0.9423   0.3312
S58     S     0.4732   0.9423   0.8312
S59     S     0.5309   0.0577   0.3355
S60     S     0.5309   0.0577   0.8355
loop_
_geom_bond_atom_site_label_1
_geom_bond_atom_site_label_2
_geom_bond_distance
_geom_bond_site_symmetry_2
_ccdc_geom_bond_type
Ti1     Er43    10.0   .     S
Ti1     Ce4    10.0   1_554     S
Ti1     S10    10.0   1_554     S
Ti2     Er44    10.0   .     S
Ti2     Ce3    10.0   .     S
Ti2     S9    10.0   .     S
Ce3     V45    10.0   .     S
Ce3     S9    10.0   .     S
Ce4     V46    10.0   .     S
Ce4     Ti1    10.0   1_556     S
Ce4     S10    10.0   .     S
Ti5     Er23    10.0   .     S
Ti5     Ce8    10.0   .     S
Ti5     S12    10.0   .     S
Ti6     Er24    10.0   .     S
Ti6     Ce7    10.0   1_556     S
Ti6     S11    10.0   1_556     S
Ce7     Ti6    10.0   1_554     S
Ce7     S11    10.0   .     S
Ce7     V19    10.0   .     S
Ce8     S12    10.0   .     S
Ce8     V20    10.0   .     S
S9     S12    10.0   .     S
S10     Ti1    10.0   1_556     S
S10     S11    10.0   1_556     S
S11     Ti6    10.0   1_554     S
S11     S10    10.0   1_554     S
Er13     V19    10.0   .     S
Er13     V16    10.0   1_554     S
Er13     V21    10.0   .     S
Er13     V22    10.0   1_554     S
Er13     Ti26    10.0   1_554     S
Er14     V20    10.0   .     S
Er14     V15    10.0   .     S
Er14     V22    10.0   .     S
Er14     V21    10.0   .     S
Er14     Ti25    10.0   .     S
V15     V21    10.0   .     S
V15     Er17    10.0   .     S
V15     V20    10.0   .     S
V15     Er23    10.0   .     S
V15     Er18    10.0   .     S
V15     Ce51    10.0   .     S
V16     V22    10.0   .     S
V16     Er13    10.0   1_556     S
V16     Er18    10.0   .     S
V16     V19    10.0   1_556     S
V16     Er24    10.0   .     S
V16     Er17    10.0   1_556     S
V16     Ce52    10.0   .     S
Er17     V21    10.0   .     S
Er17     V19    10.0   .     S
Er17     V16    10.0   1_554     S
Er17     Ti49    10.0   .     S
Er18     V22    10.0   .     S
Er18     V20    10.0   .     S
Er18     Ti50    10.0   .     S
V19     V16    10.0   1_554     S
V19     Er24    10.0   1_554     S
V19     V21    10.0   .     S
V19     Er23    10.0   .     S
V20     Er23    10.0   .     S
V20     V22    10.0   .     S
V20     Er24    10.0   .     S
V21     Er23    10.0   .     S
V21     Ce27    10.0   .     S
V22     Er24    10.0   .     S
V22     Er13    10.0   1_556     S
V22     Ce28    10.0   .     S
Er24     V19    10.0   1_556     S
Ti25     Ce28    10.0   .     S
Ti25     S36    10.0   .     S
Ti26     Er13    10.0   1_556     S
Ti26     Ce27    10.0   1_556     S
Ti26     S35    10.0   1_556     S
Ce27     Ti26    10.0   1_554     S
Ce27     S35    10.0   .     S
Ce28     S36    10.0   .     S
Ti29     Er47    10.0   .     S
Ti29     Ce31    10.0   .     S
Ti29     S33    10.0   .     S
Ti30     Er48    10.0   .     S
Ti30     Ce32    10.0   .     S
Ti30     S34    10.0   .     S
Ce31     V39    10.0   .     S
Ce31     S33    10.0   .     S
Ce32     V40    10.0   .     S
Ce32     S34    10.0   .     S
S33     S35    10.0   1_455     S
S34     S36    10.0   1_455     S
S35     Ti26    10.0   1_554     S
S35     S33    10.0   1_655     S
S36     S34    10.0   1_655     S
Er37     V45    10.0   .     S
Er37     V40    10.0   .     S
Er37     V41    10.0   .     S
Er37     V42    10.0   .     S
Er37     Ti54    10.0   .     S
Er38     V46    10.0   .     S
Er38     V39    10.0   1_556     S
Er38     V42    10.0   .     S
Er38     V41    10.0   1_556     S
Er38     Ti53    10.0   1_556     S
V39     V41    10.0   .     S
V39     Er38    10.0   1_554     S
V39     Er47    10.0   .     S
V39     Er43    10.0   .     S
V39     V46    10.0   1_554     S
V39     Er48    10.0   1_554     S
V40     V42    10.0   .     S
V40     Er48    10.0   .     S
V40     Er44    10.0   .     S
V40     V45    10.0   .     S
V40     Er47    10.0   .     S
V41     V45    10.0   .     S
V41     Er43    10.0   .     S
V41     Er47    10.0   .     S
V41     Er38    10.0   1_554     S
V41     Ce55    10.0   .     S
V42     V46    10.0   .     S
V42     Er44    10.0   .     S
V42     Er48    10.0   .     S
V42     Ce56    10.0   .     S
Er43     V46    10.0   1_554     S
Er43     V45    10.0   .     S
Er44     V45    10.0   .     S
Er44     V46    10.0   .     S
V45     Er47    10.0   .     S
V46     V39    10.0   1_556     S
V46     Er48    10.0   .     S
V46     Er43    10.0   1_556     S
Er48     V39    10.0   1_556     S
Ti49     Ce51    10.0   .     S
Ti49     S59    10.0   .     S
Ti50     Ce52    10.0   .     S
Ti50     S60    10.0   .     S
Ce51     S59    10.0   .     S
Ce52     S60    10.0   .     S
Ti53     Er38    10.0   1_554     S
Ti53     Ce56    10.0   1_554     S
Ti53     S58    10.0   1_554     S
Ti54     Ce55    10.0   .     S
Ti54     S57    10.0   .     S
Ce55     S57    10.0   .     S
Ce56     Ti53    10.0   1_556     S
Ce56     S58    10.0   .     S
S57     S59    10.0   1_565     S
S58     Ti53    10.0   1_556     S
S58     S60    10.0   1_565     S
S59     S57    10.0   1_545     S
S60     S58    10.0   1_545     S
