data_msp
_audit_creation_date              2019-12-31
_audit_creation_method            'Pymatgen'
_symmetry_space_group_name_H-M    'P1'
_symmetry_Int_Tables_number       1
loop_
_symmetry_equiv_pos_as_xyz
  x,y,z
_cell_length_a                    29.6348
_cell_length_b                    23.7324
_cell_length_c                    23.5439
_cell_angle_alpha                 90.0
_cell_angle_beta                 91.3715
_cell_angle_gamma                 90.0
loop_
_atom_site_label
_atom_site_type_symbol
_atom_site_fract_x
_atom_site_fract_y
_atom_site_fract_z
V1     V     0.0019   0.15   0.851
V2     V     0.5019   0.15   0.851
V3     V     0.2481   0.15   0.149
V4     V     0.7481   0.15   0.149
V5     V     0.0019   0.35   0.351
V6     V     0.5019   0.35   0.351
V7     V     0.2481   0.35   0.649
V8     V     0.7481   0.35   0.649
V9     V     0.2519   0.65   0.351
V10     V     0.7519   0.65   0.351
V11     V     0.4981   0.65   0.649
V12     V     0.9981   0.65   0.649
V13     V     0.4981   0.85   0.149
V14     V     0.9981   0.85   0.149
V15     V     0.2519   0.85   0.851
V16     V     0.7519   0.85   0.851
loop_
_geom_bond_atom_site_label_1
_geom_bond_atom_site_label_2
_geom_bond_distance
_geom_bond_site_symmetry_2
_ccdc_geom_bond_type
V1     V3    10.0   1_556     S
V1     V8    10.0   1_455     S
V1     V14    10.0   1_446     S
V1     V7    10.0   .     S
V2     V4    10.0   1_556     S
V2     V7    10.0   .     S
V2     V13    10.0   1_546     S
V2     V8    10.0   .     S
V3     V1    10.0   1_554     S
V3     V6    10.0   .     S
V3     V15    10.0   1_544     S
V3     V5    10.0   .     S
V4     V2    10.0   1_554     S
V4     V5    10.0   1_655     S
V4     V16    10.0   1_544     S
V4     V6    10.0   .     S
V5     V7    10.0   .     S
V5     V4    10.0   1_455     S
V5     V12    10.0   1_455     S
V6     V8    10.0   .     S
V6     V11    10.0   .     S
V7     V9    10.0   .     S
V8     V1    10.0   1_655     S
V8     V10    10.0   .     S
V9     V11    10.0   .     S
V9     V14    10.0   1_455     S
V9     V13    10.0   .     S
V10     V12    10.0   .     S
V10     V13    10.0   .     S
V10     V14    10.0   .     S
V11     V16    10.0   .     S
V11     V15    10.0   .     S
V12     V15    10.0   1_655     S
V12     V5    10.0   1_655     S
V12     V16    10.0   .     S
V13     V15    10.0   1_554     S
V13     V2    10.0   1_564     S
V14     V16    10.0   1_554     S
V14     V9    10.0   1_655     S
V14     V1    10.0   1_664     S
V15     V12    10.0   1_455     S
V15     V13    10.0   1_556     S
V15     V3    10.0   1_566     S
V16     V14    10.0   1_556     S
V16     V4    10.0   1_566     S
