data_msq
_audit_creation_date              2019-12-31
_audit_creation_method            'Pymatgen'
_symmetry_space_group_name_H-M    'P1'
_symmetry_Int_Tables_number       1
loop_
_symmetry_equiv_pos_as_xyz
  x,y,z
_cell_length_a                    23.0922
_cell_length_b                    23.0922
_cell_length_c                    23.0976
_cell_angle_alpha                 90.0
_cell_angle_beta                 90.0
_cell_angle_gamma                 90.0
loop_
_atom_site_label
_atom_site_type_symbol
_atom_site_fract_x
_atom_site_fract_y
_atom_site_fract_z
Er1     Er     0.5   0.5   0.0
Er2     Er     0.5   0.5   0.5
V3     V     0.5   0.0   0.0
V4     V     0.5   0.0   0.5
V5     V     0.0   0.5   0.0
V6     V     0.0   0.5   0.5
Ti7     Ti     0.25   0.25   0.25
Ti8     Ti     0.25   0.25   0.75
Ti9     Ti     0.75   0.25   0.25
Ti10     Ti     0.75   0.25   0.75
Ti11     Ti     0.25   0.75   0.25
Ti12     Ti     0.25   0.75   0.75
Ti13     Ti     0.75   0.75   0.25
Ti14     Ti     0.75   0.75   0.75
loop_
_geom_bond_atom_site_label_1
_geom_bond_atom_site_label_2
_geom_bond_distance
_geom_bond_site_symmetry_2
_ccdc_geom_bond_type
Er1     Ti7    10.0   .     S
Er1     Ti9    10.0   .     S
Er1     Ti13    10.0   .     S
Er1     Ti11    10.0   .     S
Er1     Ti12    10.0   1_554     S
Er1     Ti8    10.0   1_554     S
Er1     Ti10    10.0   1_554     S
Er1     Ti14    10.0   1_554     S
Er2     Ti8    10.0   .     S
Er2     Ti10    10.0   .     S
Er2     Ti14    10.0   .     S
Er2     Ti12    10.0   .     S
Er2     Ti11    10.0   .     S
Er2     Ti7    10.0   .     S
Er2     Ti9    10.0   .     S
Er2     Ti13    10.0   .     S
V3     Ti11    10.0   1_545     S
V3     Ti14    10.0   1_544     S
V3     Ti12    10.0   1_544     S
V3     Ti13    10.0   1_545     S
V3     Ti8    10.0   1_554     S
V3     Ti9    10.0   .     S
V3     Ti10    10.0   1_554     S
V3     Ti7    10.0   .     S
V4     Ti12    10.0   1_545     S
V4     Ti13    10.0   1_545     S
V4     Ti11    10.0   1_545     S
V4     Ti14    10.0   1_545     S
V4     Ti7    10.0   .     S
V4     Ti10    10.0   .     S
V4     Ti9    10.0   .     S
V4     Ti8    10.0   .     S
V5     Ti13    10.0   1_455     S
V5     Ti10    10.0   1_454     S
V5     Ti14    10.0   1_454     S
V5     Ti9    10.0   1_455     S
V5     Ti7    10.0   .     S
V5     Ti12    10.0   1_554     S
V5     Ti8    10.0   1_554     S
V5     Ti11    10.0   .     S
V6     Ti14    10.0   1_455     S
V6     Ti9    10.0   1_455     S
V6     Ti13    10.0   1_455     S
V6     Ti10    10.0   1_455     S
V6     Ti8    10.0   .     S
V6     Ti11    10.0   .     S
V6     Ti7    10.0   .     S
V6     Ti12    10.0   .     S
Ti8     Er1    10.0   1_556     S
Ti8     V3    10.0   1_556     S
Ti8     V5    10.0   1_556     S
Ti9     V6    10.0   1_655     S
Ti9     V5    10.0   1_655     S
Ti10     Er1    10.0   1_556     S
Ti10     V3    10.0   1_556     S
Ti10     V5    10.0   1_656     S
Ti10     V6    10.0   1_655     S
Ti11     V3    10.0   1_565     S
Ti11     V4    10.0   1_565     S
Ti12     Er1    10.0   1_556     S
Ti12     V4    10.0   1_565     S
Ti12     V3    10.0   1_566     S
Ti12     V5    10.0   1_556     S
Ti13     V4    10.0   1_565     S
Ti13     V3    10.0   1_565     S
Ti13     V5    10.0   1_655     S
Ti13     V6    10.0   1_655     S
Ti14     Er1    10.0   1_556     S
Ti14     V3    10.0   1_566     S
Ti14     V4    10.0   1_565     S
Ti14     V6    10.0   1_655     S
Ti14     V5    10.0   1_656     S
