data_mss
_audit_creation_date              2019-12-31
_audit_creation_method            'Pymatgen'
_symmetry_space_group_name_H-M    'P1'
_symmetry_Int_Tables_number       1
loop_
_symmetry_equiv_pos_as_xyz
  x,y,z
_cell_length_a                    28.2844
_cell_length_b                    28.2844
_cell_length_c                    97.5652
_cell_angle_alpha                 90.0
_cell_angle_beta                 90.0
_cell_angle_gamma                 90.0
loop_
_atom_site_label
_atom_site_type_symbol
_atom_site_fract_x
_atom_site_fract_y
_atom_site_fract_z
V1     V     0.125   0.0   0.4638
V2     V     0.125   0.5   0.4638
V3     V     0.625   0.0   0.4638
V4     V     0.625   0.5   0.4638
V5     V     0.375   0.25   0.4638
V6     V     0.375   0.75   0.4638
V7     V     0.875   0.25   0.4638
V8     V     0.875   0.75   0.4638
V9     V     0.125   0.25   0.2862
V10     V     0.125   0.75   0.2862
V11     V     0.625   0.25   0.2862
V12     V     0.625   0.75   0.2862
V13     V     0.375   0.0   0.2862
V14     V     0.375   0.5   0.2862
V15     V     0.875   0.0   0.2862
V16     V     0.875   0.5   0.2862
Er17     Er     0.0   0.375   0.375
Er18     Er     0.0   0.875   0.375
Er19     Er     0.5   0.375   0.375
Er20     Er     0.5   0.875   0.375
V21     V     0.375   0.25   0.2138
V22     V     0.375   0.75   0.2138
V23     V     0.875   0.25   0.2138
V24     V     0.875   0.75   0.2138
V25     V     0.125   0.0   0.2138
V26     V     0.125   0.5   0.2138
V27     V     0.625   0.0   0.2138
V28     V     0.625   0.5   0.2138
V29     V     0.125   0.25   0.0362
V30     V     0.125   0.75   0.0362
V31     V     0.625   0.25   0.0362
V32     V     0.625   0.75   0.0362
Er33     Er     0.25   0.375   0.125
Er34     Er     0.25   0.875   0.125
Er35     Er     0.75   0.375   0.125
Er36     Er     0.75   0.875   0.125
V37     V     0.375   0.0   0.0362
V38     V     0.375   0.5   0.0362
V39     V     0.875   0.0   0.0362
V40     V     0.875   0.5   0.0362
V41     V     0.125   0.0   0.9638
V42     V     0.125   0.5   0.9638
V43     V     0.625   0.0   0.9638
V44     V     0.625   0.5   0.9638
V45     V     0.375   0.0   0.7862
V46     V     0.375   0.5   0.7862
V47     V     0.875   0.0   0.7862
V48     V     0.875   0.5   0.7862
Er49     Er     0.25   0.125   0.875
Er50     Er     0.25   0.625   0.875
Er51     Er     0.75   0.125   0.875
Er52     Er     0.75   0.625   0.875
V53     V     0.375   0.25   0.9638
V54     V     0.375   0.75   0.9638
V55     V     0.875   0.25   0.9638
V56     V     0.875   0.75   0.9638
V57     V     0.125   0.25   0.7862
V58     V     0.125   0.75   0.7862
V59     V     0.625   0.25   0.7862
V60     V     0.625   0.75   0.7862
V61     V     0.375   0.25   0.7138
V62     V     0.375   0.75   0.7138
V63     V     0.875   0.25   0.7138
V64     V     0.875   0.75   0.7138
V65     V     0.125   0.25   0.5362
V66     V     0.125   0.75   0.5362
V67     V     0.625   0.25   0.5362
V68     V     0.625   0.75   0.5362
Er69     Er     0.0   0.125   0.625
Er70     Er     0.0   0.625   0.625
Er71     Er     0.5   0.125   0.625
Er72     Er     0.5   0.625   0.625
V73     V     0.375   0.0   0.5362
V74     V     0.375   0.5   0.5362
V75     V     0.875   0.0   0.5362
V76     V     0.875   0.5   0.5362
V77     V     0.125   0.0   0.7138
V78     V     0.125   0.5   0.7138
V79     V     0.625   0.0   0.7138
V80     V     0.625   0.5   0.7138
loop_
_geom_bond_atom_site_label_1
_geom_bond_atom_site_label_2
_geom_bond_distance
_geom_bond_site_symmetry_2
_ccdc_geom_bond_type
V1     V73    10.0   .     S
V1     V66    10.0   1_545     S
V1     V65    10.0   .     S
V1     Er18    10.0   1_545     S
V1     V6    10.0   1_545     S
V1     V5    10.0   .     S
V2     V74    10.0   .     S
V2     V65    10.0   .     S
V2     V66    10.0   .     S
V2     Er17    10.0   .     S
V2     V5    10.0   .     S
V2     V6    10.0   .     S
V3     V75    10.0   .     S
V3     V68    10.0   1_545     S
V3     V67    10.0   .     S
V3     Er20    10.0   1_545     S
V3     V8    10.0   1_545     S
V3     V7    10.0   .     S
V4     V76    10.0   .     S
V4     V67    10.0   .     S
V4     V68    10.0   .     S
V4     Er19    10.0   .     S
V4     V7    10.0   .     S
V4     V8    10.0   .     S
V5     V65    10.0   .     S
V5     V74    10.0   .     S
V5     V73    10.0   .     S
V5     Er19    10.0   .     S
V6     V66    10.0   .     S
V6     V73    10.0   1_565     S
V6     V74    10.0   .     S
V6     Er20    10.0   .     S
V6     V1    10.0   1_565     S
V7     V67    10.0   .     S
V7     V76    10.0   .     S
V7     V75    10.0   .     S
V7     Er17    10.0   1_655     S
V8     V68    10.0   .     S
V8     V75    10.0   1_565     S
V8     V76    10.0   .     S
V8     Er18    10.0   1_655     S
V8     V3    10.0   1_565     S
V9     Er17    10.0   .     S
V9     V13    10.0   .     S
V9     V15    10.0   1_455     S
V9     V25    10.0   .     S
V9     V23    10.0   1_455     S
V9     V21    10.0   .     S
V10     Er18    10.0   .     S
V10     V14    10.0   .     S
V10     V16    10.0   1_455     S
V10     V26    10.0   .     S
V10     V24    10.0   1_455     S
V10     V22    10.0   .     S
V11     Er19    10.0   .     S
V11     V15    10.0   .     S
V11     V13    10.0   .     S
V11     V27    10.0   .     S
V11     V21    10.0   .     S
V11     V23    10.0   .     S
V12     Er20    10.0   .     S
V12     V16    10.0   .     S
V12     V14    10.0   .     S
V12     V28    10.0   .     S
V12     V22    10.0   .     S
V12     V24    10.0   .     S
V13     Er20    10.0   1_545     S
V13     V27    10.0   .     S
V13     V25    10.0   .     S
V13     V21    10.0   .     S
V14     Er19    10.0   .     S
V14     V28    10.0   .     S
V14     V26    10.0   .     S
V14     V22    10.0   .     S
V15     Er18    10.0   1_645     S
V15     V9    10.0   1_655     S
V15     V25    10.0   1_655     S
V15     V27    10.0   .     S
V15     V23    10.0   .     S
V16     Er17    10.0   1_655     S
V16     V10    10.0   1_655     S
V16     V26    10.0   1_655     S
V16     V28    10.0   .     S
V16     V24    10.0   .     S
Er17     V7    10.0   1_455     S
Er17     V16    10.0   1_455     S
Er18     V1    10.0   1_565     S
Er18     V8    10.0   1_455     S
Er18     V15    10.0   1_465     S
Er20     V3    10.0   1_565     S
Er20     V13    10.0   1_565     S
V21     Er33    10.0   .     S
V21     V27    10.0   .     S
V21     V25    10.0   .     S
V22     Er34    10.0   .     S
V22     V28    10.0   .     S
V22     V26    10.0   .     S
V23     V9    10.0   1_655     S
V23     Er35    10.0   .     S
V23     V25    10.0   1_655     S
V23     V27    10.0   .     S
V24     V10    10.0   1_655     S
V24     Er36    10.0   .     S
V24     V26    10.0   1_655     S
V24     V28    10.0   .     S
V25     V15    10.0   1_455     S
V25     Er34    10.0   1_545     S
V25     V23    10.0   1_455     S
V26     V16    10.0   1_455     S
V26     Er33    10.0   .     S
V26     V24    10.0   1_455     S
V27     Er36    10.0   1_545     S
V28     Er35    10.0   .     S
V29     Er33    10.0   .     S
V29     V39    10.0   1_455     S
V29     V40    10.0   1_455     S
V29     V55    10.0   1_454     S
V29     V41    10.0   1_554     S
V29     V42    10.0   1_554     S
V30     Er34    10.0   .     S
V30     V40    10.0   1_455     S
V30     V39    10.0   1_465     S
V30     V56    10.0   1_454     S
V30     V42    10.0   1_554     S
V30     V41    10.0   1_564     S
V31     Er35    10.0   .     S
V31     V37    10.0   .     S
V31     V38    10.0   .     S
V31     V53    10.0   1_554     S
V31     V43    10.0   1_554     S
V31     V44    10.0   1_554     S
V32     Er36    10.0   .     S
V32     V38    10.0   .     S
V32     V37    10.0   1_565     S
V32     V54    10.0   1_554     S
V32     V44    10.0   1_554     S
V32     V43    10.0   1_564     S
Er33     V38    10.0   .     S
Er34     V25    10.0   1_565     S
Er34     V37    10.0   1_565     S
Er35     V40    10.0   .     S
Er36     V27    10.0   1_565     S
Er36     V39    10.0   1_565     S
V37     Er34    10.0   1_545     S
V37     V32    10.0   1_545     S
V37     V54    10.0   1_544     S
V37     V43    10.0   1_554     S
V37     V53    10.0   1_554     S
V38     V53    10.0   1_554     S
V38     V44    10.0   1_554     S
V38     V54    10.0   1_554     S
V39     Er36    10.0   1_545     S
V39     V29    10.0   1_655     S
V39     V30    10.0   1_645     S
V39     V56    10.0   1_544     S
V39     V41    10.0   1_654     S
V39     V55    10.0   1_554     S
V40     V30    10.0   1_655     S
V40     V29    10.0   1_655     S
V40     V55    10.0   1_554     S
V40     V42    10.0   1_654     S
V40     V56    10.0   1_554     S
V41     V29    10.0   1_556     S
V41     V39    10.0   1_456     S
V41     V30    10.0   1_546     S
V41     Er49    10.0   .     S
V41     V56    10.0   1_445     S
V41     V55    10.0   1_455     S
V42     V30    10.0   1_556     S
V42     V40    10.0   1_456     S
V42     V29    10.0   1_556     S
V42     Er50    10.0   .     S
V42     V55    10.0   1_455     S
V42     V56    10.0   1_455     S
V43     V31    10.0   1_556     S
V43     V37    10.0   1_556     S
V43     V32    10.0   1_546     S
V43     Er51    10.0   .     S
V43     V54    10.0   1_545     S
V43     V53    10.0   .     S
V44     V32    10.0   1_556     S
V44     V38    10.0   1_556     S
V44     V31    10.0   1_556     S
V44     Er52    10.0   .     S
V44     V53    10.0   .     S
V44     V54    10.0   .     S
V45     Er49    10.0   .     S
V45     V60    10.0   1_545     S
V45     V58    10.0   1_545     S
V45     V62    10.0   1_545     S
V45     V77    10.0   .     S
V45     V79    10.0   .     S
V46     Er50    10.0   .     S
V46     V59    10.0   .     S
V46     V57    10.0   .     S
V46     V61    10.0   .     S
V46     V78    10.0   .     S
V46     V80    10.0   .     S
V47     Er51    10.0   .     S
V47     V58    10.0   1_645     S
V47     V60    10.0   1_545     S
V47     V64    10.0   1_545     S
V47     V79    10.0   .     S
V47     V77    10.0   1_655     S
V48     Er52    10.0   .     S
V48     V57    10.0   1_655     S
V48     V59    10.0   .     S
V48     V63    10.0   .     S
V48     V80    10.0   .     S
V48     V78    10.0   1_655     S
Er49     V53    10.0   .     S
Er49     V57    10.0   .     S
Er50     V54    10.0   .     S
Er50     V58    10.0   .     S
Er51     V55    10.0   .     S
Er51     V59    10.0   .     S
Er52     V56    10.0   .     S
Er52     V60    10.0   .     S
V53     V31    10.0   1_556     S
V53     V38    10.0   1_556     S
V53     V37    10.0   1_556     S
V54     V32    10.0   1_556     S
V54     V37    10.0   1_566     S
V54     V38    10.0   1_556     S
V54     V43    10.0   1_565     S
V55     V29    10.0   1_656     S
V55     V40    10.0   1_556     S
V55     V39    10.0   1_556     S
V55     V42    10.0   1_655     S
V55     V41    10.0   1_655     S
V56     V30    10.0   1_656     S
V56     V39    10.0   1_566     S
V56     V40    10.0   1_556     S
V56     V41    10.0   1_665     S
V56     V42    10.0   1_655     S
V57     V48    10.0   1_455     S
V57     V61    10.0   .     S
V57     V78    10.0   .     S
V57     V63    10.0   1_455     S
V58     V47    10.0   1_465     S
V58     V45    10.0   1_565     S
V58     V62    10.0   .     S
V58     V77    10.0   1_565     S
V58     V64    10.0   1_455     S
V59     V63    10.0   .     S
V59     V80    10.0   .     S
V59     V61    10.0   .     S
V60     V45    10.0   1_565     S
V60     V47    10.0   1_565     S
V60     V64    10.0   .     S
V60     V79    10.0   1_565     S
V60     V62    10.0   .     S
V61     Er71    10.0   .     S
V61     V78    10.0   .     S
V61     V80    10.0   .     S
V62     Er72    10.0   .     S
V62     V77    10.0   1_565     S
V62     V79    10.0   1_565     S
V62     V45    10.0   1_565     S
V63     Er69    10.0   1_655     S
V63     V80    10.0   .     S
V63     V78    10.0   1_655     S
V63     V57    10.0   1_655     S
V64     Er70    10.0   1_655     S
V64     V79    10.0   1_565     S
V64     V77    10.0   1_665     S
V64     V47    10.0   1_565     S
V64     V58    10.0   1_655     S
V65     Er69    10.0   .     S
V65     V74    10.0   .     S
V65     V73    10.0   .     S
V66     V1    10.0   1_565     S
V66     Er70    10.0   .     S
V66     V73    10.0   1_565     S
V66     V74    10.0   .     S
V67     Er71    10.0   .     S
V67     V76    10.0   .     S
V67     V75    10.0   .     S
V68     V3    10.0   1_565     S
V68     Er72    10.0   .     S
V68     V75    10.0   1_565     S
V68     V76    10.0   .     S
Er69     V63    10.0   1_455     S
Er69     V77    10.0   .     S
Er69     V75    10.0   1_455     S
Er70     V64    10.0   1_455     S
Er70     V78    10.0   .     S
Er70     V76    10.0   1_455     S
Er71     V79    10.0   .     S
Er71     V73    10.0   .     S
Er72     V80    10.0   .     S
Er72     V74    10.0   .     S
V73     V6    10.0   1_545     S
V73     V66    10.0   1_545     S
V75     V8    10.0   1_545     S
V75     Er69    10.0   1_655     S
V75     V68    10.0   1_545     S
V76     Er70    10.0   1_655     S
V77     V62    10.0   1_545     S
V77     V64    10.0   1_445     S
V77     V58    10.0   1_545     S
V77     V47    10.0   1_455     S
V78     V63    10.0   1_455     S
V78     V48    10.0   1_455     S
V79     V64    10.0   1_545     S
V79     V62    10.0   1_545     S
V79     V60    10.0   1_545     S
