data_mst
_audit_creation_date              2019-12-31
_audit_creation_method            'Pymatgen'
_symmetry_space_group_name_H-M    'P1'
_symmetry_Int_Tables_number       1
loop_
_symmetry_equiv_pos_as_xyz
  x,y,z
_cell_length_a                    52.7244
_cell_length_b                    36.1662
_cell_length_c                    28.5439
_cell_angle_alpha                 90.0
_cell_angle_beta                 90.0
_cell_angle_gamma                 90.0
loop_
_atom_site_label
_atom_site_type_symbol
_atom_site_fract_x
_atom_site_fract_y
_atom_site_fract_z
V1     V     0.5   0.25   0.0
V2     V     0.5   0.75   0.0
V3     V     0.5   0.0   0.5
V4     V     0.5   0.5   0.5
Er5     Er     0.3357   0.0   0.6752
Er6     Er     0.3357   0.5   0.6752
Er7     Er     0.1643   0.0   0.8248
Er8     Er     0.1643   0.5   0.8248
Er9     Er     0.3357   0.25   0.8248
Er10     Er     0.3357   0.75   0.8248
Er11     Er     0.1643   0.25   0.6752
Er12     Er     0.1643   0.75   0.6752
Er13     Er     0.3357   0.25   0.1752
Er14     Er     0.3357   0.75   0.1752
Er15     Er     0.1643   0.25   0.3248
Er16     Er     0.1643   0.75   0.3248
Er17     Er     0.3357   0.0   0.3248
Er18     Er     0.3357   0.5   0.3248
Er19     Er     0.1643   0.0   0.1752
Er20     Er     0.1643   0.5   0.1752
Er21     Er     0.6643   0.0   0.6752
Er22     Er     0.6643   0.5   0.6752
Er23     Er     0.8357   0.0   0.8248
Er24     Er     0.8357   0.5   0.8248
Er25     Er     0.8357   0.25   0.6752
Er26     Er     0.8357   0.75   0.6752
Er27     Er     0.6643   0.25   0.8248
Er28     Er     0.6643   0.75   0.8248
Er29     Er     0.6643   0.25   0.1752
Er30     Er     0.6643   0.75   0.1752
Er31     Er     0.8357   0.25   0.3248
Er32     Er     0.8357   0.75   0.3248
Er33     Er     0.8357   0.0   0.1752
Er34     Er     0.8357   0.5   0.1752
Er35     Er     0.6643   0.0   0.3248
Er36     Er     0.6643   0.5   0.3248
V37     V     0.0   0.0   0.0
V38     V     0.0   0.5   0.0
V39     V     0.0   0.25   0.5
V40     V     0.0   0.75   0.5
loop_
_geom_bond_atom_site_label_1
_geom_bond_atom_site_label_2
_geom_bond_distance
_geom_bond_site_symmetry_2
_ccdc_geom_bond_type
V1     Er13    10.0   .     S
V1     Er9    10.0   1_554     S
V1     Er29    10.0   .     S
V1     Er27    10.0   1_554     S
V2     Er14    10.0   .     S
V2     Er10    10.0   1_554     S
V2     Er30    10.0   .     S
V2     Er28    10.0   1_554     S
V3     Er5    10.0   .     S
V3     Er17    10.0   .     S
V3     Er21    10.0   .     S
V3     Er35    10.0   .     S
V4     Er6    10.0   .     S
V4     Er18    10.0   .     S
V4     Er22    10.0   .     S
V4     Er36    10.0   .     S
Er5     Er7    10.0   .     S
Er5     Er10    10.0   1_545     S
Er5     Er9    10.0   .     S
Er5     Er17    10.0   .     S
Er6     Er8    10.0   .     S
Er6     Er9    10.0   .     S
Er6     Er10    10.0   .     S
Er6     Er18    10.0   .     S
Er7     Er12    10.0   1_545     S
Er7     Er11    10.0   .     S
Er7     Er19    10.0   1_556     S
Er7     V37    10.0   1_556     S
Er8     Er11    10.0   .     S
Er8     Er12    10.0   .     S
Er8     Er20    10.0   1_556     S
Er8     V38    10.0   1_556     S
Er9     V1    10.0   1_556     S
Er9     Er11    10.0   .     S
Er9     Er13    10.0   1_556     S
Er10     V2    10.0   1_556     S
Er10     Er5    10.0   1_565     S
Er10     Er12    10.0   .     S
Er10     Er14    10.0   1_556     S
Er11     Er15    10.0   .     S
Er11     V39    10.0   .     S
Er12     Er7    10.0   1_565     S
Er12     Er16    10.0   .     S
Er12     V40    10.0   .     S
Er13     Er15    10.0   .     S
Er13     Er17    10.0   .     S
Er13     Er18    10.0   .     S
Er13     Er9    10.0   1_554     S
Er14     Er16    10.0   .     S
Er14     Er18    10.0   .     S
Er14     Er17    10.0   1_565     S
Er14     Er10    10.0   1_554     S
Er15     Er19    10.0   .     S
Er15     Er20    10.0   .     S
Er15     V39    10.0   .     S
Er16     Er20    10.0   .     S
Er16     Er19    10.0   1_565     S
Er16     V40    10.0   .     S
Er17     Er19    10.0   .     S
Er17     Er14    10.0   1_545     S
Er18     Er20    10.0   .     S
Er19     Er16    10.0   1_545     S
Er19     Er7    10.0   1_554     S
Er19     V37    10.0   .     S
Er20     Er8    10.0   1_554     S
Er20     V38    10.0   .     S
Er21     Er23    10.0   .     S
Er21     Er27    10.0   .     S
Er21     Er28    10.0   1_545     S
Er21     Er35    10.0   .     S
Er22     Er24    10.0   .     S
Er22     Er28    10.0   .     S
Er22     Er27    10.0   .     S
Er22     Er36    10.0   .     S
Er23     Er25    10.0   .     S
Er23     Er26    10.0   1_545     S
Er23     Er33    10.0   1_556     S
Er23     V37    10.0   1_656     S
Er24     Er26    10.0   .     S
Er24     Er25    10.0   .     S
Er24     Er34    10.0   1_556     S
Er24     V38    10.0   1_656     S
Er25     V39    10.0   1_655     S
Er25     Er27    10.0   .     S
Er25     Er31    10.0   .     S
Er26     V40    10.0   1_655     S
Er26     Er28    10.0   .     S
Er26     Er23    10.0   1_565     S
Er26     Er32    10.0   .     S
Er27     V1    10.0   1_556     S
Er27     Er29    10.0   1_556     S
Er28     V2    10.0   1_556     S
Er28     Er21    10.0   1_565     S
Er28     Er30    10.0   1_556     S
Er29     Er31    10.0   .     S
Er29     Er36    10.0   .     S
Er29     Er35    10.0   .     S
Er29     Er27    10.0   1_554     S
Er30     Er32    10.0   .     S
Er30     Er35    10.0   1_565     S
Er30     Er36    10.0   .     S
Er30     Er28    10.0   1_554     S
Er31     V39    10.0   1_655     S
Er31     Er34    10.0   .     S
Er31     Er33    10.0   .     S
Er32     V40    10.0   1_655     S
Er32     Er33    10.0   1_565     S
Er32     Er34    10.0   .     S
Er33     Er35    10.0   .     S
Er33     Er32    10.0   1_545     S
Er33     Er23    10.0   1_554     S
Er33     V37    10.0   1_655     S
Er34     Er36    10.0   .     S
Er34     Er24    10.0   1_554     S
Er34     V38    10.0   1_655     S
Er35     Er30    10.0   1_545     S
V37     Er7    10.0   1_554     S
V37     Er33    10.0   1_455     S
V37     Er23    10.0   1_454     S
V38     Er8    10.0   1_554     S
V38     Er34    10.0   1_455     S
V38     Er24    10.0   1_454     S
V39     Er25    10.0   1_455     S
V39     Er31    10.0   1_455     S
V40     Er26    10.0   1_455     S
V40     Er32    10.0   1_455     S
