data_mvy
_audit_creation_date              2019-12-31
_audit_creation_method            'Pymatgen'
_symmetry_space_group_name_H-M    'P1'
_symmetry_Int_Tables_number       1
loop_
_symmetry_equiv_pos_as_xyz
  x,y,z
_cell_length_a                    31.5474
_cell_length_b                    29.7562
_cell_length_c                    44.4617
_cell_angle_alpha                 90.0
_cell_angle_beta                 90.0
_cell_angle_gamma                 90.0
loop_
_atom_site_label
_atom_site_type_symbol
_atom_site_fract_x
_atom_site_fract_y
_atom_site_fract_z
V1     V     0.4646   0.6638   0.7119
V2     V     0.9646   0.6638   0.7119
V3     V     0.0354   0.3362   0.7119
V4     V     0.5354   0.3362   0.7119
V5     V     0.4646   0.6638   0.2881
V6     V     0.9646   0.6638   0.2881
V7     V     0.0354   0.3362   0.2881
V8     V     0.5354   0.3362   0.2881
Er9     Er     0.375   0.6033   0.5
Er10     Er     0.875   0.6033   0.5
Er11     Er     0.125   0.3967   0.5
Er12     Er     0.625   0.3967   0.5
V13     V     0.2146   0.8362   0.2119
V14     V     0.7146   0.8362   0.2119
V15     V     0.2854   0.1638   0.2119
V16     V     0.7854   0.1638   0.2119
V17     V     0.2854   0.1638   0.7881
V18     V     0.7854   0.1638   0.7881
V19     V     0.2146   0.8362   0.7881
V20     V     0.7146   0.8362   0.7881
Er21     Er     0.125   0.8967   0.0
Er22     Er     0.625   0.8967   0.0
Er23     Er     0.375   0.1033   0.0
Er24     Er     0.875   0.1033   0.0
loop_
_geom_bond_atom_site_label_1
_geom_bond_atom_site_label_2
_geom_bond_distance
_geom_bond_site_symmetry_2
_ccdc_geom_bond_type
V1     Er9    10.0   .     S
V1     V4    10.0   .     S
V1     V19    10.0   .     S
V1     V20    10.0   .     S
V2     Er10    10.0   .     S
V2     V3    10.0   1_655     S
V2     V20    10.0   .     S
V2     V19    10.0   1_655     S
V3     Er11    10.0   .     S
V3     V2    10.0   1_455     S
V3     V18    10.0   1_455     S
V3     V17    10.0   .     S
V4     Er12    10.0   .     S
V4     V17    10.0   .     S
V4     V18    10.0   .     S
V5     Er9    10.0   .     S
V5     V8    10.0   .     S
V5     V13    10.0   .     S
V5     V14    10.0   .     S
V6     Er10    10.0   .     S
V6     V7    10.0   1_655     S
V6     V14    10.0   .     S
V6     V13    10.0   1_655     S
V7     Er11    10.0   .     S
V7     V6    10.0   1_455     S
V7     V16    10.0   1_455     S
V7     V15    10.0   .     S
V8     Er12    10.0   .     S
V8     V15    10.0   .     S
V8     V16    10.0   .     S
Er9     Er11    10.0   .     S
Er9     Er12    10.0   .     S
Er10     Er12    10.0   .     S
Er10     Er11    10.0   1_655     S
Er11     Er10    10.0   1_455     S
V13     V6    10.0   1_455     S
V13     Er21    10.0   .     S
V13     V15    10.0   1_565     S
V14     Er22    10.0   .     S
V14     V16    10.0   1_565     S
V15     Er23    10.0   .     S
V15     V13    10.0   1_545     S
V16     Er24    10.0   .     S
V16     V14    10.0   1_545     S
V16     V7    10.0   1_655     S
V17     Er23    10.0   1_556     S
V17     V19    10.0   1_545     S
V18     Er24    10.0   1_556     S
V18     V20    10.0   1_545     S
V18     V3    10.0   1_655     S
V19     V2    10.0   1_455     S
V19     Er21    10.0   1_556     S
V19     V17    10.0   1_565     S
V20     Er22    10.0   1_556     S
V20     V18    10.0   1_565     S
Er21     V19    10.0   1_554     S
Er21     Er24    10.0   1_465     S
Er21     Er23    10.0   1_565     S
Er22     V20    10.0   1_554     S
Er22     Er23    10.0   1_565     S
Er22     Er24    10.0   1_565     S
Er23     V17    10.0   1_554     S
Er23     Er22    10.0   1_545     S
Er23     Er21    10.0   1_545     S
Er24     V18    10.0   1_554     S
Er24     Er21    10.0   1_645     S
Er24     Er22    10.0   1_545     S
