data_ncg
_audit_creation_date              2019-12-31
_audit_creation_method            'Pymatgen'
_symmetry_space_group_name_H-M    'P1'
_symmetry_Int_Tables_number       1
loop_
_symmetry_equiv_pos_as_xyz
  x,y,z
_cell_length_a                    30.0
_cell_length_b                    30.0
_cell_length_c                    55.9808
_cell_angle_alpha                 90.0
_cell_angle_beta                 90.0
_cell_angle_gamma                 120.0
loop_
_atom_site_label
_atom_site_type_symbol
_atom_site_fract_x
_atom_site_fract_y
_atom_site_fract_z
V1     V     0.0   0.1667   0.256
V2     V     1.0   0.5   0.256
V3     V     1.0   0.8333   0.256
V4     V     0.3333   0.1667   0.256
V5     V     0.3333   0.5   0.256
V6     V     0.3333   0.8333   0.256
V7     V     0.6667   0.1667   0.256
V8     V     0.6667   0.5   0.256
V9     V     0.6667   0.8333   0.256
V10     V     0.1667   0.0   0.4107
V11     V     0.1667   0.3333   0.4107
V12     V     0.1667   0.6667   0.4107
V13     V     0.5   0.0   0.4107
V14     V     0.5   0.3333   0.4107
V15     V     0.5   0.6667   0.4107
V16     V     0.8333   0.0   0.4107
V17     V     0.8333   0.3333   0.4107
V18     V     0.8333   0.6667   0.4107
V19     V     0.1667   0.1667   0.9226
V20     V     0.1667   0.5   0.9226
V21     V     0.1667   0.8333   0.9226
V22     V     0.5   0.1667   0.9226
V23     V     0.5   0.5   0.9226
V24     V     0.5   0.8333   0.9226
V25     V     0.8333   0.1667   0.9226
V26     V     0.8333   0.5   0.9226
V27     V     0.8333   0.8333   0.9226
V28     V     0.0   0.1667   0.0773
V29     V     1.0   0.5   0.0773
V30     V     1.0   0.8333   0.0773
V31     V     0.3333   0.1667   0.0773
V32     V     0.3333   0.5   0.0773
V33     V     0.3333   0.8333   0.0773
V34     V     0.6667   0.1667   0.0773
V35     V     0.6667   0.5   0.0773
V36     V     0.6667   0.8333   0.0773
V37     V     0.1667   0.0   0.5893
V38     V     0.1667   0.3333   0.5893
V39     V     0.1667   0.6667   0.5893
V40     V     0.5   0.0   0.5893
V41     V     0.5   0.3333   0.5893
V42     V     0.5   0.6667   0.5893
V43     V     0.8333   0.0   0.5893
V44     V     0.8333   0.3333   0.5893
V45     V     0.8333   0.6667   0.5893
V46     V     0.1667   0.1667   0.744
V47     V     0.1667   0.5   0.744
V48     V     0.1667   0.8333   0.744
V49     V     0.5   0.1667   0.744
V50     V     0.5   0.5   0.744
V51     V     0.5   0.8333   0.744
V52     V     0.8333   0.1667   0.744
V53     V     0.8333   0.5   0.744
V54     V     0.8333   0.8333   0.744
loop_
_geom_bond_atom_site_label_1
_geom_bond_atom_site_label_2
_geom_bond_distance
_geom_bond_site_symmetry_2
_ccdc_geom_bond_type
V1     V28    10.0   .     S
V1     V16    10.0   1_455     S
V1     V11    10.0   .     S
V1     V5    10.0   .     S
V1     V9    10.0   1_445     S
V1     V4    10.0   .     S
V1     V7    10.0   1_455     S
V1     V3    10.0   1_445     S
V1     V2    10.0   1_455     S
V2     V29    10.0   .     S
V2     V17    10.0   .     S
V2     V12    10.0   1_655     S
V2     V6    10.0   1_655     S
V2     V7    10.0   .     S
V2     V5    10.0   1_655     S
V2     V8    10.0   .     S
V2     V1    10.0   1_655     S
V2     V3    10.0   .     S
V3     V30    10.0   .     S
V3     V18    10.0   .     S
V3     V10    10.0   1_665     S
V3     V4    10.0   1_665     S
V3     V8    10.0   .     S
V3     V6    10.0   1_655     S
V3     V9    10.0   .     S
V3     V1    10.0   1_665     S
V4     V31    10.0   .     S
V4     V10    10.0   .     S
V4     V14    10.0   .     S
V4     V3    10.0   1_445     S
V4     V8    10.0   .     S
V4     V7    10.0   .     S
V4     V6    10.0   1_545     S
V4     V5    10.0   .     S
V5     V32    10.0   .     S
V5     V11    10.0   .     S
V5     V15    10.0   .     S
V5     V9    10.0   .     S
V5     V2    10.0   1_455     S
V5     V8    10.0   .     S
V5     V6    10.0   .     S
V6     V33    10.0   .     S
V6     V12    10.0   .     S
V6     V13    10.0   1_565     S
V6     V2    10.0   1_455     S
V6     V7    10.0   1_565     S
V6     V3    10.0   1_455     S
V6     V9    10.0   .     S
V6     V4    10.0   1_565     S
V7     V34    10.0   .     S
V7     V13    10.0   .     S
V7     V17    10.0   .     S
V7     V6    10.0   1_545     S
V7     V1    10.0   1_655     S
V7     V9    10.0   1_545     S
V7     V8    10.0   .     S
V8     V35    10.0   .     S
V8     V14    10.0   .     S
V8     V18    10.0   .     S
V8     V9    10.0   .     S
V9     V36    10.0   .     S
V9     V15    10.0   .     S
V9     V16    10.0   1_565     S
V9     V1    10.0   1_665     S
V9     V7    10.0   1_565     S
V10     V3    10.0   1_445     S
V10     V18    10.0   1_445     S
V10     V14    10.0   .     S
V10     V11    10.0   .     S
V10     V12    10.0   1_545     S
V10     V16    10.0   1_455     S
V10     V13    10.0   .     S
V10     V37    10.0   .     S
V11     V16    10.0   1_455     S
V11     V15    10.0   .     S
V11     V12    10.0   .     S
V11     V17    10.0   1_455     S
V11     V14    10.0   .     S
V11     V38    10.0   .     S
V12     V2    10.0   1_455     S
V12     V17    10.0   1_455     S
V12     V13    10.0   1_565     S
V12     V10    10.0   1_565     S
V12     V18    10.0   1_455     S
V12     V15    10.0   .     S
V12     V39    10.0   .     S
V13     V6    10.0   1_545     S
V13     V12    10.0   1_545     S
V13     V17    10.0   .     S
V13     V14    10.0   .     S
V13     V15    10.0   1_545     S
V13     V16    10.0   .     S
V13     V40    10.0   .     S
V14     V18    10.0   .     S
V14     V15    10.0   .     S
V14     V17    10.0   .     S
V14     V41    10.0   .     S
V15     V16    10.0   1_565     S
V15     V13    10.0   1_565     S
V15     V18    10.0   .     S
V15     V42    10.0   .     S
V16     V1    10.0   1_655     S
V16     V9    10.0   1_545     S
V16     V11    10.0   1_655     S
V16     V15    10.0   1_545     S
V16     V17    10.0   .     S
V16     V18    10.0   1_545     S
V16     V10    10.0   1_655     S
V16     V43    10.0   .     S
V17     V12    10.0   1_655     S
V17     V18    10.0   .     S
V17     V11    10.0   1_655     S
V17     V44    10.0   .     S
V18     V10    10.0   1_665     S
V18     V16    10.0   1_565     S
V18     V12    10.0   1_655     S
V18     V45    10.0   .     S
V19     V46    10.0   .     S
V19     V28    10.0   1_556     S
V19     V31    10.0   1_556     S
V19     V25    10.0   1_455     S
V19     V22    10.0   .     S
V19     V21    10.0   1_545     S
V19     V20    10.0   .     S
V19     V27    10.0   1_445     S
V19     V23    10.0   .     S
V20     V47    10.0   .     S
V20     V29    10.0   1_456     S
V20     V32    10.0   1_556     S
V20     V26    10.0   1_455     S
V20     V23    10.0   .     S
V20     V21    10.0   .     S
V20     V25    10.0   1_455     S
V20     V24    10.0   .     S
V21     V48    10.0   .     S
V21     V30    10.0   1_456     S
V21     V33    10.0   1_556     S
V21     V27    10.0   1_455     S
V21     V24    10.0   .     S
V21     V19    10.0   1_565     S
V21     V26    10.0   1_455     S
V21     V22    10.0   1_565     S
V22     V49    10.0   .     S
V22     V31    10.0   1_556     S
V22     V34    10.0   1_556     S
V22     V25    10.0   .     S
V22     V24    10.0   1_545     S
V22     V23    10.0   .     S
V22     V21    10.0   1_545     S
V22     V26    10.0   .     S
V23     V50    10.0   .     S
V23     V32    10.0   1_556     S
V23     V35    10.0   1_556     S
V23     V26    10.0   .     S
V23     V24    10.0   .     S
V23     V27    10.0   .     S
V24     V51    10.0   .     S
V24     V33    10.0   1_556     S
V24     V36    10.0   1_556     S
V24     V27    10.0   .     S
V24     V22    10.0   1_565     S
V24     V25    10.0   1_565     S
V25     V52    10.0   .     S
V25     V34    10.0   1_556     S
V25     V28    10.0   1_656     S
V25     V19    10.0   1_655     S
V25     V27    10.0   1_545     S
V25     V26    10.0   .     S
V25     V20    10.0   1_655     S
V25     V24    10.0   1_545     S
V26     V53    10.0   .     S
V26     V35    10.0   1_556     S
V26     V29    10.0   1_556     S
V26     V20    10.0   1_655     S
V26     V27    10.0   .     S
V26     V21    10.0   1_655     S
V27     V54    10.0   .     S
V27     V36    10.0   1_556     S
V27     V30    10.0   1_556     S
V27     V21    10.0   1_655     S
V27     V25    10.0   1_565     S
V27     V19    10.0   1_665     S
V28     V19    10.0   1_554     S
V28     V25    10.0   1_454     S
V28     V31    10.0   .     S
V28     V34    10.0   1_455     S
V28     V32    10.0   .     S
V28     V36    10.0   1_445     S
V28     V30    10.0   1_445     S
V28     V29    10.0   1_455     S
V29     V20    10.0   1_654     S
V29     V26    10.0   1_554     S
V29     V32    10.0   1_655     S
V29     V35    10.0   .     S
V29     V33    10.0   1_655     S
V29     V34    10.0   .     S
V29     V28    10.0   1_655     S
V29     V30    10.0   .     S
V30     V21    10.0   1_654     S
V30     V27    10.0   1_554     S
V30     V33    10.0   1_655     S
V30     V36    10.0   .     S
V30     V31    10.0   1_665     S
V30     V35    10.0   .     S
V30     V28    10.0   1_665     S
V31     V22    10.0   1_554     S
V31     V19    10.0   1_554     S
V31     V34    10.0   .     S
V31     V30    10.0   1_445     S
V31     V35    10.0   .     S
V31     V33    10.0   1_545     S
V31     V32    10.0   .     S
V32     V23    10.0   1_554     S
V32     V20    10.0   1_554     S
V32     V29    10.0   1_455     S
V32     V35    10.0   .     S
V32     V36    10.0   .     S
V32     V33    10.0   .     S
V33     V24    10.0   1_554     S
V33     V21    10.0   1_554     S
V33     V30    10.0   1_455     S
V33     V36    10.0   .     S
V33     V29    10.0   1_455     S
V33     V34    10.0   1_565     S
V33     V31    10.0   1_565     S
V34     V25    10.0   1_554     S
V34     V22    10.0   1_554     S
V34     V28    10.0   1_655     S
V34     V33    10.0   1_545     S
V34     V36    10.0   1_545     S
V34     V35    10.0   .     S
V35     V26    10.0   1_554     S
V35     V23    10.0   1_554     S
V35     V36    10.0   .     S
V36     V27    10.0   1_554     S
V36     V24    10.0   1_554     S
V36     V28    10.0   1_665     S
V36     V34    10.0   1_565     S
V37     V48    10.0   1_545     S
V37     V46    10.0   .     S
V37     V38    10.0   .     S
V37     V39    10.0   1_545     S
V37     V45    10.0   1_445     S
V37     V41    10.0   .     S
V37     V43    10.0   1_455     S
V37     V40    10.0   .     S
V38     V46    10.0   .     S
V38     V47    10.0   .     S
V38     V39    10.0   .     S
V38     V43    10.0   1_455     S
V38     V42    10.0   .     S
V38     V44    10.0   1_455     S
V38     V41    10.0   .     S
V39     V47    10.0   .     S
V39     V48    10.0   .     S
V39     V37    10.0   1_565     S
V39     V44    10.0   1_455     S
V39     V40    10.0   1_565     S
V39     V45    10.0   1_455     S
V39     V42    10.0   .     S
V40     V51    10.0   1_545     S
V40     V49    10.0   .     S
V40     V41    10.0   .     S
V40     V42    10.0   1_545     S
V40     V39    10.0   1_545     S
V40     V44    10.0   .     S
V40     V43    10.0   .     S
V41     V49    10.0   .     S
V41     V50    10.0   .     S
V41     V42    10.0   .     S
V41     V45    10.0   .     S
V41     V44    10.0   .     S
V42     V50    10.0   .     S
V42     V51    10.0   .     S
V42     V40    10.0   1_565     S
V42     V43    10.0   1_565     S
V42     V45    10.0   .     S
V43     V54    10.0   1_545     S
V43     V52    10.0   .     S
V43     V44    10.0   .     S
V43     V45    10.0   1_545     S
V43     V38    10.0   1_655     S
V43     V42    10.0   1_545     S
V43     V37    10.0   1_655     S
V44     V52    10.0   .     S
V44     V53    10.0   .     S
V44     V45    10.0   .     S
V44     V39    10.0   1_655     S
V44     V38    10.0   1_655     S
V45     V53    10.0   .     S
V45     V54    10.0   .     S
V45     V43    10.0   1_565     S
V45     V37    10.0   1_665     S
V45     V39    10.0   1_655     S
V46     V48    10.0   1_545     S
V46     V47    10.0   .     S
V46     V52    10.0   1_455     S
V46     V49    10.0   .     S
V46     V54    10.0   1_445     S
V46     V50    10.0   .     S
V47     V48    10.0   .     S
V47     V53    10.0   1_455     S
V47     V50    10.0   .     S
V47     V52    10.0   1_455     S
V47     V51    10.0   .     S
V48     V37    10.0   1_565     S
V48     V46    10.0   1_565     S
V48     V54    10.0   1_455     S
V48     V51    10.0   .     S
V48     V53    10.0   1_455     S
V48     V49    10.0   1_565     S
V49     V51    10.0   1_545     S
V49     V50    10.0   .     S
V49     V52    10.0   .     S
V49     V48    10.0   1_545     S
V49     V53    10.0   .     S
V50     V51    10.0   .     S
V50     V53    10.0   .     S
V50     V54    10.0   .     S
V51     V40    10.0   1_565     S
V51     V49    10.0   1_565     S
V51     V54    10.0   .     S
V51     V52    10.0   1_565     S
V52     V54    10.0   1_545     S
V52     V53    10.0   .     S
V52     V46    10.0   1_655     S
V52     V47    10.0   1_655     S
V52     V51    10.0   1_545     S
V53     V54    10.0   .     S
V53     V47    10.0   1_655     S
V53     V48    10.0   1_655     S
V54     V43    10.0   1_565     S
V54     V52    10.0   1_565     S
V54     V48    10.0   1_655     S
V54     V46    10.0   1_665     S
