data_nch
_audit_creation_date              2019-12-31
_audit_creation_method            'Pymatgen'
_symmetry_space_group_name_H-M    'P1'
_symmetry_Int_Tables_number       1
loop_
_symmetry_equiv_pos_as_xyz
  x,y,z
_cell_length_a                    29.9997
_cell_length_b                    30.0
_cell_length_c                    33.4906
_cell_angle_alpha                 75.1658
_cell_angle_beta                 90.0001
_cell_angle_gamma                 98.5344
loop_
_atom_site_label
_atom_site_type_symbol
_atom_site_fract_x
_atom_site_fract_y
_atom_site_fract_z
V1     V     0.2443   0.2947   0.1339
V2     V     0.2443   0.2947   0.6339
V3     V     0.2443   0.628   0.1339
V4     V     0.2443   0.628   0.6339
V5     V     0.2443   0.9614   0.1339
V6     V     0.2443   0.9614   0.6339
V7     V     0.5776   0.2947   0.1339
V8     V     0.5776   0.2947   0.6339
V9     V     0.5776   0.628   0.1339
V10     V     0.5776   0.628   0.6339
V11     V     0.5776   0.9614   0.1339
V12     V     0.5776   0.9614   0.6339
V13     V     0.9109   0.2947   0.1339
V14     V     0.9109   0.2947   0.6339
V15     V     0.9109   0.628   0.1339
V16     V     0.9109   0.628   0.6339
V17     V     0.9109   0.9614   0.1339
V18     V     0.9109   0.9614   0.6339
V19     V     0.0891   0.0386   0.3661
V20     V     0.0891   0.0386   0.8661
V21     V     0.0891   0.372   0.3661
V22     V     0.0891   0.372   0.8661
V23     V     0.0891   0.7053   0.3661
V24     V     0.0891   0.7053   0.8661
V25     V     0.4224   0.0386   0.3661
V26     V     0.4224   0.0386   0.8661
V27     V     0.4224   0.372   0.3661
V28     V     0.4224   0.372   0.8661
V29     V     0.4224   0.7053   0.3661
V30     V     0.4224   0.7053   0.8661
V31     V     0.7557   0.0386   0.3661
V32     V     0.7557   0.0386   0.8661
V33     V     0.7557   0.372   0.3661
V34     V     0.7557   0.372   0.8661
V35     V     0.7557   0.7053   0.3661
V36     V     0.7557   0.7053   0.8661
loop_
_geom_bond_atom_site_label_1
_geom_bond_atom_site_label_2
_geom_bond_distance
_geom_bond_site_symmetry_2
_ccdc_geom_bond_type
V1     V19    10.0   .     S
V1     V5    10.0   1_545     S
V1     V3    10.0   .     S
V1     V21    10.0   .     S
V1     V13    10.0   1_455     S
V1     V7    10.0   .     S
V1     V27    10.0   .     S
V1     V28    10.0   1_554     S
V1     V22    10.0   1_554     S
V2     V20    10.0   .     S
V2     V6    10.0   1_545     S
V2     V4    10.0   .     S
V2     V22    10.0   .     S
V2     V14    10.0   1_455     S
V2     V8    10.0   .     S
V2     V28    10.0   .     S
V2     V27    10.0   .     S
V2     V21    10.0   .     S
V3     V21    10.0   .     S
V3     V5    10.0   .     S
V3     V23    10.0   .     S
V3     V15    10.0   1_455     S
V3     V9    10.0   .     S
V3     V29    10.0   .     S
V3     V30    10.0   1_554     S
V3     V24    10.0   1_554     S
V4     V22    10.0   .     S
V4     V6    10.0   .     S
V4     V24    10.0   .     S
V4     V16    10.0   1_455     S
V4     V10    10.0   .     S
V4     V30    10.0   .     S
V4     V29    10.0   .     S
V4     V23    10.0   .     S
V5     V23    10.0   .     S
V5     V1    10.0   1_565     S
V5     V19    10.0   1_565     S
V5     V17    10.0   1_455     S
V5     V11    10.0   .     S
V5     V25    10.0   1_565     S
V5     V26    10.0   1_564     S
V5     V20    10.0   1_564     S
V6     V24    10.0   .     S
V6     V2    10.0   1_565     S
V6     V20    10.0   1_565     S
V6     V18    10.0   1_455     S
V6     V12    10.0   .     S
V6     V26    10.0   1_565     S
V6     V25    10.0   1_565     S
V6     V19    10.0   1_565     S
V7     V25    10.0   .     S
V7     V11    10.0   1_545     S
V7     V9    10.0   .     S
V7     V27    10.0   .     S
V7     V13    10.0   .     S
V7     V33    10.0   .     S
V7     V34    10.0   1_554     S
V7     V28    10.0   1_554     S
V8     V26    10.0   .     S
V8     V12    10.0   1_545     S
V8     V10    10.0   .     S
V8     V28    10.0   .     S
V8     V14    10.0   .     S
V8     V34    10.0   .     S
V8     V33    10.0   .     S
V8     V27    10.0   .     S
V9     V27    10.0   .     S
V9     V11    10.0   .     S
V9     V29    10.0   .     S
V9     V15    10.0   .     S
V9     V35    10.0   .     S
V9     V36    10.0   1_554     S
V9     V30    10.0   1_554     S
V10     V28    10.0   .     S
V10     V12    10.0   .     S
V10     V30    10.0   .     S
V10     V16    10.0   .     S
V10     V36    10.0   .     S
V10     V35    10.0   .     S
V10     V29    10.0   .     S
V11     V29    10.0   .     S
V11     V7    10.0   1_565     S
V11     V25    10.0   1_565     S
V11     V17    10.0   .     S
V11     V31    10.0   1_565     S
V11     V32    10.0   1_564     S
V11     V26    10.0   1_564     S
V12     V30    10.0   .     S
V12     V8    10.0   1_565     S
V12     V26    10.0   1_565     S
V12     V18    10.0   .     S
V12     V32    10.0   1_565     S
V12     V31    10.0   1_565     S
V12     V25    10.0   1_565     S
V13     V31    10.0   .     S
V13     V17    10.0   1_545     S
V13     V15    10.0   .     S
V13     V33    10.0   .     S
V13     V1    10.0   1_655     S
V13     V21    10.0   1_655     S
V13     V22    10.0   1_654     S
V13     V34    10.0   1_554     S
V14     V32    10.0   .     S
V14     V18    10.0   1_545     S
V14     V16    10.0   .     S
V14     V34    10.0   .     S
V14     V2    10.0   1_655     S
V14     V22    10.0   1_655     S
V14     V21    10.0   1_655     S
V14     V33    10.0   .     S
V15     V33    10.0   .     S
V15     V17    10.0   .     S
V15     V35    10.0   .     S
V15     V3    10.0   1_655     S
V15     V23    10.0   1_655     S
V15     V24    10.0   1_654     S
V15     V36    10.0   1_554     S
V16     V34    10.0   .     S
V16     V18    10.0   .     S
V16     V36    10.0   .     S
V16     V4    10.0   1_655     S
V16     V24    10.0   1_655     S
V16     V23    10.0   1_655     S
V16     V35    10.0   .     S
V17     V35    10.0   .     S
V17     V13    10.0   1_565     S
V17     V31    10.0   1_565     S
V17     V5    10.0   1_655     S
V17     V19    10.0   1_665     S
V17     V20    10.0   1_664     S
V17     V32    10.0   1_564     S
V18     V36    10.0   .     S
V18     V14    10.0   1_565     S
V18     V32    10.0   1_565     S
V18     V6    10.0   1_655     S
V18     V20    10.0   1_665     S
V18     V19    10.0   1_665     S
V18     V31    10.0   1_565     S
V19     V5    10.0   1_545     S
V19     V21    10.0   .     S
V19     V23    10.0   1_545     S
V19     V17    10.0   1_445     S
V19     V25    10.0   .     S
V19     V31    10.0   1_455     S
V19     V18    10.0   1_445     S
V19     V6    10.0   1_545     S
V20     V6    10.0   1_545     S
V20     V22    10.0   .     S
V20     V24    10.0   1_545     S
V20     V18    10.0   1_445     S
V20     V26    10.0   .     S
V20     V32    10.0   1_455     S
V20     V17    10.0   1_446     S
V20     V5    10.0   1_546     S
V21     V23    10.0   .     S
V21     V13    10.0   1_455     S
V21     V27    10.0   .     S
V21     V33    10.0   1_455     S
V21     V14    10.0   1_455     S
V22     V24    10.0   .     S
V22     V14    10.0   1_455     S
V22     V28    10.0   .     S
V22     V34    10.0   1_455     S
V22     V13    10.0   1_456     S
V22     V1    10.0   1_556     S
V23     V19    10.0   1_565     S
V23     V15    10.0   1_455     S
V23     V29    10.0   .     S
V23     V35    10.0   1_455     S
V23     V16    10.0   1_455     S
V24     V20    10.0   1_565     S
V24     V16    10.0   1_455     S
V24     V30    10.0   .     S
V24     V36    10.0   1_455     S
V24     V15    10.0   1_456     S
V24     V3    10.0   1_556     S
V25     V11    10.0   1_545     S
V25     V27    10.0   .     S
V25     V29    10.0   1_545     S
V25     V5    10.0   1_545     S
V25     V31    10.0   .     S
V25     V6    10.0   1_545     S
V25     V12    10.0   1_545     S
V26     V12    10.0   1_545     S
V26     V28    10.0   .     S
V26     V30    10.0   1_545     S
V26     V6    10.0   1_545     S
V26     V32    10.0   .     S
V26     V5    10.0   1_546     S
V26     V11    10.0   1_546     S
V27     V29    10.0   .     S
V27     V33    10.0   .     S
V28     V30    10.0   .     S
V28     V34    10.0   .     S
V28     V1    10.0   1_556     S
V28     V7    10.0   1_556     S
V29     V25    10.0   1_565     S
V29     V35    10.0   .     S
V30     V26    10.0   1_565     S
V30     V36    10.0   .     S
V30     V3    10.0   1_556     S
V30     V9    10.0   1_556     S
V31     V17    10.0   1_545     S
V31     V33    10.0   .     S
V31     V35    10.0   1_545     S
V31     V11    10.0   1_545     S
V31     V19    10.0   1_655     S
V31     V12    10.0   1_545     S
V31     V18    10.0   1_545     S
V32     V18    10.0   1_545     S
V32     V34    10.0   .     S
V32     V36    10.0   1_545     S
V32     V12    10.0   1_545     S
V32     V20    10.0   1_655     S
V32     V11    10.0   1_546     S
V32     V17    10.0   1_546     S
V33     V35    10.0   .     S
V33     V21    10.0   1_655     S
V34     V36    10.0   .     S
V34     V22    10.0   1_655     S
V34     V7    10.0   1_556     S
V34     V13    10.0   1_556     S
V35     V31    10.0   1_565     S
V35     V23    10.0   1_655     S
V36     V32    10.0   1_565     S
V36     V24    10.0   1_655     S
V36     V9    10.0   1_556     S
V36     V15    10.0   1_556     S
