data_ncj
_audit_creation_date              2019-12-31
_audit_creation_method            'Pymatgen'
_symmetry_space_group_name_H-M    'P1'
_symmetry_Int_Tables_number       1
loop_
_symmetry_equiv_pos_as_xyz
  x,y,z
_cell_length_a                    32.1848
_cell_length_b                    23.7516
_cell_length_c                    31.943
_cell_angle_alpha                 90.0
_cell_angle_beta                 96.1319
_cell_angle_gamma                 90.0
loop_
_atom_site_label
_atom_site_type_symbol
_atom_site_fract_x
_atom_site_fract_y
_atom_site_fract_z
V1     V     0.1404   0.0   0.3767
V2     V     0.1404   0.0   0.8767
V3     V     0.1404   0.5   0.3767
V4     V     0.1404   0.5   0.8767
V5     V     0.6404   0.0   0.3767
V6     V     0.6404   0.0   0.8767
V7     V     0.6404   0.5   0.3767
V8     V     0.6404   0.5   0.8767
V9     V     0.3596   0.0   0.1233
V10     V     0.3596   0.0   0.6233
V11     V     0.3596   0.5   0.1233
V12     V     0.3596   0.5   0.6233
V13     V     0.8596   0.0   0.1233
V14     V     0.8596   0.0   0.6233
V15     V     0.8596   0.5   0.1233
V16     V     0.8596   0.5   0.6233
V17     V     0.1096   0.25   0.1233
V18     V     0.1096   0.25   0.6233
V19     V     0.1096   0.75   0.1233
V20     V     0.1096   0.75   0.6233
V21     V     0.6096   0.25   0.1233
V22     V     0.6096   0.25   0.6233
V23     V     0.6096   0.75   0.1233
V24     V     0.6096   0.75   0.6233
V25     V     0.3904   0.25   0.3767
V26     V     0.3904   0.25   0.8767
V27     V     0.3904   0.75   0.3767
V28     V     0.3904   0.75   0.8767
V29     V     0.8904   0.25   0.3767
V30     V     0.8904   0.25   0.8767
V31     V     0.8904   0.75   0.3767
V32     V     0.8904   0.75   0.8767
loop_
_geom_bond_atom_site_label_1
_geom_bond_atom_site_label_2
_geom_bond_distance
_geom_bond_site_symmetry_2
_ccdc_geom_bond_type
V1     V27    10.0   1_545     S
V1     V31    10.0   1_445     S
V1     V20    10.0   1_545     S
V1     V18    10.0   .     S
V1     V29    10.0   1_455     S
V1     V25    10.0   .     S
V1     V10    10.0   .     S
V1     V17    10.0   .     S
V1     V19    10.0   1_545     S
V2     V28    10.0   1_545     S
V2     V32    10.0   1_445     S
V2     V19    10.0   1_546     S
V2     V17    10.0   1_556     S
V2     V30    10.0   1_455     S
V2     V26    10.0   .     S
V2     V9    10.0   1_556     S
V2     V18    10.0   .     S
V2     V20    10.0   1_545     S
V3     V25    10.0   .     S
V3     V29    10.0   1_455     S
V3     V18    10.0   .     S
V3     V20    10.0   .     S
V3     V31    10.0   1_455     S
V3     V27    10.0   .     S
V3     V12    10.0   .     S
V3     V19    10.0   .     S
V3     V17    10.0   .     S
V4     V26    10.0   .     S
V4     V30    10.0   1_455     S
V4     V17    10.0   1_556     S
V4     V19    10.0   1_556     S
V4     V32    10.0   1_455     S
V4     V28    10.0   .     S
V4     V11    10.0   1_556     S
V4     V20    10.0   .     S
V4     V18    10.0   .     S
V5     V31    10.0   1_545     S
V5     V27    10.0   1_545     S
V5     V24    10.0   1_545     S
V5     V22    10.0   .     S
V5     V25    10.0   .     S
V5     V29    10.0   .     S
V5     V14    10.0   .     S
V5     V21    10.0   .     S
V5     V23    10.0   1_545     S
V6     V32    10.0   1_545     S
V6     V28    10.0   1_545     S
V6     V23    10.0   1_546     S
V6     V21    10.0   1_556     S
V6     V26    10.0   .     S
V6     V30    10.0   .     S
V6     V13    10.0   1_556     S
V6     V22    10.0   .     S
V6     V24    10.0   1_545     S
V7     V29    10.0   .     S
V7     V25    10.0   .     S
V7     V22    10.0   .     S
V7     V24    10.0   .     S
V7     V27    10.0   .     S
V7     V31    10.0   .     S
V7     V16    10.0   .     S
V7     V23    10.0   .     S
V7     V21    10.0   .     S
V8     V30    10.0   .     S
V8     V26    10.0   .     S
V8     V21    10.0   1_556     S
V8     V23    10.0   1_556     S
V8     V28    10.0   .     S
V8     V32    10.0   .     S
V8     V15    10.0   1_556     S
V8     V24    10.0   .     S
V8     V22    10.0   .     S
V9     V23    10.0   1_545     S
V9     V28    10.0   1_544     S
V9     V19    10.0   1_545     S
V9     V17    10.0   .     S
V9     V21    10.0   .     S
V9     V26    10.0   1_554     S
V9     V2    10.0   1_554     S
V9     V25    10.0   .     S
V9     V27    10.0   1_545     S
V10     V24    10.0   1_545     S
V10     V27    10.0   1_545     S
V10     V20    10.0   1_545     S
V10     V18    10.0   .     S
V10     V22    10.0   .     S
V10     V25    10.0   .     S
V10     V26    10.0   .     S
V10     V28    10.0   1_545     S
V11     V21    10.0   .     S
V11     V26    10.0   1_554     S
V11     V17    10.0   .     S
V11     V19    10.0   .     S
V11     V23    10.0   .     S
V11     V28    10.0   1_554     S
V11     V4    10.0   1_554     S
V11     V27    10.0   .     S
V11     V25    10.0   .     S
V12     V22    10.0   .     S
V12     V25    10.0   .     S
V12     V18    10.0   .     S
V12     V20    10.0   .     S
V12     V24    10.0   .     S
V12     V27    10.0   .     S
V12     V28    10.0   .     S
V12     V26    10.0   .     S
V13     V19    10.0   1_645     S
V13     V32    10.0   1_544     S
V13     V23    10.0   1_545     S
V13     V21    10.0   .     S
V13     V17    10.0   1_655     S
V13     V30    10.0   1_554     S
V13     V6    10.0   1_554     S
V13     V29    10.0   .     S
V13     V31    10.0   1_545     S
V14     V20    10.0   1_645     S
V14     V31    10.0   1_545     S
V14     V24    10.0   1_545     S
V14     V22    10.0   .     S
V14     V18    10.0   1_655     S
V14     V29    10.0   .     S
V14     V30    10.0   .     S
V14     V32    10.0   1_545     S
V15     V17    10.0   1_655     S
V15     V30    10.0   1_554     S
V15     V21    10.0   .     S
V15     V23    10.0   .     S
V15     V19    10.0   1_655     S
V15     V32    10.0   1_554     S
V15     V8    10.0   1_554     S
V15     V31    10.0   .     S
V15     V29    10.0   .     S
V16     V18    10.0   1_655     S
V16     V29    10.0   .     S
V16     V22    10.0   .     S
V16     V24    10.0   .     S
V16     V20    10.0   1_655     S
V16     V31    10.0   .     S
V16     V32    10.0   .     S
V16     V30    10.0   .     S
V17     V15    10.0   1_455     S
V17     V4    10.0   1_554     S
V17     V2    10.0   1_554     S
V17     V13    10.0   1_455     S
V17     V30    10.0   1_454     S
V18     V16    10.0   1_455     S
V18     V14    10.0   1_455     S
V18     V29    10.0   1_455     S
V19     V13    10.0   1_465     S
V19     V2    10.0   1_564     S
V19     V9    10.0   1_565     S
V19     V4    10.0   1_554     S
V19     V15    10.0   1_455     S
V19     V1    10.0   1_565     S
V19     V32    10.0   1_454     S
V20     V14    10.0   1_465     S
V20     V1    10.0   1_565     S
V20     V10    10.0   1_565     S
V20     V16    10.0   1_455     S
V20     V2    10.0   1_565     S
V20     V31    10.0   1_455     S
V21     V8    10.0   1_554     S
V21     V6    10.0   1_554     S
V21     V26    10.0   1_554     S
V22     V25    10.0   .     S
V23     V9    10.0   1_565     S
V23     V6    10.0   1_564     S
V23     V13    10.0   1_565     S
V23     V8    10.0   1_554     S
V23     V5    10.0   1_565     S
V23     V28    10.0   1_554     S
V24     V10    10.0   1_565     S
V24     V5    10.0   1_565     S
V24     V14    10.0   1_565     S
V24     V6    10.0   1_565     S
V24     V27    10.0   .     S
V26     V11    10.0   1_556     S
V26     V9    10.0   1_556     S
V26     V21    10.0   1_556     S
V27     V10    10.0   1_565     S
V27     V1    10.0   1_565     S
V27     V5    10.0   1_565     S
V27     V9    10.0   1_565     S
V28     V9    10.0   1_566     S
V28     V2    10.0   1_565     S
V28     V6    10.0   1_565     S
V28     V11    10.0   1_556     S
V28     V23    10.0   1_556     S
V28     V10    10.0   1_565     S
V29     V3    10.0   1_655     S
V29     V1    10.0   1_655     S
V29     V18    10.0   1_655     S
V30     V15    10.0   1_556     S
V30     V4    10.0   1_655     S
V30     V2    10.0   1_655     S
V30     V13    10.0   1_556     S
V30     V17    10.0   1_656     S
V31     V14    10.0   1_565     S
V31     V5    10.0   1_565     S
V31     V1    10.0   1_665     S
V31     V3    10.0   1_655     S
V31     V20    10.0   1_655     S
V31     V13    10.0   1_565     S
V32     V13    10.0   1_566     S
V32     V6    10.0   1_565     S
V32     V2    10.0   1_665     S
V32     V4    10.0   1_655     S
V32     V15    10.0   1_556     S
V32     V19    10.0   1_656     S
V32     V14    10.0   1_565     S
