data_nck
_audit_creation_date              2019-12-31
_audit_creation_method            'Pymatgen'
_symmetry_space_group_name_H-M    'P1'
_symmetry_Int_Tables_number       1
loop_
_symmetry_equiv_pos_as_xyz
  x,y,z
_cell_length_a                    41.4276
_cell_length_b                    41.4276
_cell_length_c                    30.0003
_cell_angle_alpha                 90.0
_cell_angle_beta                 90.0
_cell_angle_gamma                 120.0
loop_
_atom_site_label
_atom_site_type_symbol
_atom_site_fract_x
_atom_site_fract_y
_atom_site_fract_z
V1     V     0.5202   0.8924   0.3056
V2     V     0.5202   0.8924   0.6389
V3     V     0.5202   0.8924   0.9722
V4     V     0.8131   0.7743   0.25
V5     V     0.8131   0.7743   0.5833
V6     V     0.8131   0.7743   0.9167
V7     V     0.7743   0.9612   0.0833
V8     V     0.7743   0.9612   0.4167
V9     V     0.7743   0.9612   0.75
V10     V     0.8924   0.3722   0.0278
V11     V     0.8924   0.3722   0.3611
V12     V     0.8924   0.3722   0.6944
V13     V     0.5591   0.7055   0.1389
V14     V     0.5591   0.7055   0.4722
V15     V     0.5591   0.7055   0.8056
V16     V     0.4409   0.2945   0.1944
V17     V     0.4409   0.2945   0.5278
V18     V     0.4409   0.2945   0.8611
V19     V     0.1464   0.4409   0.1389
V20     V     0.1464   0.4409   0.4722
V21     V     0.1464   0.4409   0.8056
V22     V     0.8536   0.5591   0.1944
V23     V     0.8536   0.5591   0.5278
V24     V     0.8536   0.5591   0.8611
V25     V     0.2257   0.0388   0.25
V26     V     0.2257   0.0388   0.5833
V27     V     0.2257   0.0388   0.9167
V28     V     0.1076   0.6278   0.3056
V29     V     0.1076   0.6278   0.6389
V30     V     0.1076   0.6278   0.9722
V31     V     0.0388   0.8131   0.0833
V32     V     0.0388   0.8131   0.4167
V33     V     0.0388   0.8131   0.75
V34     V     0.6278   0.5202   0.0278
V35     V     0.6278   0.5202   0.3611
V36     V     0.6278   0.5202   0.6944
V37     V     0.9612   0.1869   0.25
V38     V     0.9612   0.1869   0.5833
V39     V     0.9612   0.1869   0.9167
V40     V     0.3722   0.4798   0.3056
V41     V     0.3722   0.4798   0.6389
V42     V     0.3722   0.4798   0.9722
V43     V     0.1869   0.2257   0.0833
V44     V     0.1869   0.2257   0.4167
V45     V     0.1869   0.2257   0.75
V46     V     0.4798   0.1076   0.0278
V47     V     0.4798   0.1076   0.3611
V48     V     0.4798   0.1076   0.6944
V49     V     0.7055   0.1464   0.1944
V50     V     0.7055   0.1464   0.5278
V51     V     0.7055   0.1464   0.8611
V52     V     0.2945   0.8536   0.1389
V53     V     0.2945   0.8536   0.4722
V54     V     0.2945   0.8536   0.8056
loop_
_geom_bond_atom_site_label_1
_geom_bond_atom_site_label_2
_geom_bond_distance
_geom_bond_site_symmetry_2
_ccdc_geom_bond_type
V1     V8    10.0   .     S
V1     V49    10.0   1_565     S
V1     V47    10.0   1_565     S
V1     V53    10.0   .     S
V1     V14    10.0   .     S
V1     V13    10.0   .     S
V1     V3    10.0   1_554     S
V1     V2    10.0   .     S
V1     V52    10.0   .     S
V2     V9    10.0   .     S
V2     V50    10.0   1_565     S
V2     V48    10.0   1_565     S
V2     V54    10.0   .     S
V2     V15    10.0   .     S
V2     V14    10.0   .     S
V2     V3    10.0   .     S
V2     V53    10.0   .     S
V3     V7    10.0   1_556     S
V3     V51    10.0   1_565     S
V3     V46    10.0   1_566     S
V3     V52    10.0   1_556     S
V3     V13    10.0   1_556     S
V3     V15    10.0   .     S
V3     V1    10.0   1_556     S
V3     V54    10.0   .     S
V4     V13    10.0   .     S
V4     V22    10.0   .     S
V4     V35    10.0   .     S
V4     V31    10.0   1_655     S
V4     V7    10.0   .     S
V4     V8    10.0   .     S
V4     V6    10.0   1_554     S
V4     V5    10.0   .     S
V4     V32    10.0   1_655     S
V5     V14    10.0   .     S
V5     V23    10.0   .     S
V5     V36    10.0   .     S
V5     V32    10.0   1_655     S
V5     V8    10.0   .     S
V5     V9    10.0   .     S
V5     V6    10.0   .     S
V5     V33    10.0   1_655     S
V6     V15    10.0   .     S
V6     V24    10.0   .     S
V6     V34    10.0   1_556     S
V6     V33    10.0   1_655     S
V6     V9    10.0   .     S
V6     V7    10.0   1_556     S
V6     V4    10.0   1_556     S
V6     V31    10.0   1_656     S
V7     V3    10.0   1_554     S
V7     V13    10.0   .     S
V7     V49    10.0   1_565     S
V7     V37    10.0   1_565     S
V7     V6    10.0   1_554     S
V7     V8    10.0   .     S
V7     V9    10.0   1_554     S
V7     V39    10.0   1_564     S
V8     V14    10.0   .     S
V8     V50    10.0   1_565     S
V8     V38    10.0   1_565     S
V8     V9    10.0   .     S
V8     V37    10.0   1_565     S
V9     V15    10.0   .     S
V9     V51    10.0   1_565     S
V9     V39    10.0   1_565     S
V9     V7    10.0   1_556     S
V9     V38    10.0   1_565     S
V10     V39    10.0   1_554     S
V10     V19    10.0   1_655     S
V10     V30    10.0   1_654     S
V10     V24    10.0   1_554     S
V10     V51    10.0   1_554     S
V10     V22    10.0   .     S
V10     V11    10.0   .     S
V10     V12    10.0   1_554     S
V10     V49    10.0   .     S
V11     V37    10.0   .     S
V11     V20    10.0   1_655     S
V11     V28    10.0   1_655     S
V11     V22    10.0   .     S
V11     V49    10.0   .     S
V11     V23    10.0   .     S
V11     V12    10.0   .     S
V11     V50    10.0   .     S
V12     V38    10.0   .     S
V12     V21    10.0   1_655     S
V12     V29    10.0   1_655     S
V12     V23    10.0   .     S
V12     V50    10.0   .     S
V12     V24    10.0   .     S
V12     V10    10.0   1_556     S
V12     V51    10.0   .     S
V13     V34    10.0   .     S
V13     V3    10.0   1_554     S
V13     V42    10.0   1_554     S
V13     V40    10.0   .     S
V13     V14    10.0   .     S
V13     V15    10.0   1_554     S
V14     V35    10.0   .     S
V14     V40    10.0   .     S
V14     V41    10.0   .     S
V14     V15    10.0   .     S
V15     V36    10.0   .     S
V15     V41    10.0   .     S
V15     V42    10.0   .     S
V15     V13    10.0   1_556     S
V16     V40    10.0   .     S
V16     V43    10.0   .     S
V16     V25    10.0   .     S
V16     V35    10.0   .     S
V16     V47    10.0   .     S
V16     V46    10.0   .     S
V16     V34    10.0   .     S
V16     V18    10.0   1_554     S
V16     V17    10.0   .     S
V17     V41    10.0   .     S
V17     V44    10.0   .     S
V17     V26    10.0   .     S
V17     V36    10.0   .     S
V17     V48    10.0   .     S
V17     V47    10.0   .     S
V17     V35    10.0   .     S
V17     V18    10.0   .     S
V18     V42    10.0   .     S
V18     V45    10.0   .     S
V18     V27    10.0   .     S
V18     V34    10.0   1_556     S
V18     V46    10.0   1_556     S
V18     V48    10.0   .     S
V18     V36    10.0   .     S
V18     V16    10.0   1_556     S
V19     V10    10.0   1_455     S
V19     V37    10.0   1_455     S
V19     V43    10.0   .     S
V19     V42    10.0   1_554     S
V19     V30    10.0   1_554     S
V19     V28    10.0   .     S
V19     V20    10.0   .     S
V19     V21    10.0   1_554     S
V19     V40    10.0   .     S
V20     V11    10.0   1_455     S
V20     V38    10.0   1_455     S
V20     V44    10.0   .     S
V20     V40    10.0   .     S
V20     V28    10.0   .     S
V20     V29    10.0   .     S
V20     V21    10.0   .     S
V20     V41    10.0   .     S
V21     V12    10.0   1_455     S
V21     V39    10.0   1_455     S
V21     V45    10.0   .     S
V21     V41    10.0   .     S
V21     V29    10.0   .     S
V21     V30    10.0   .     S
V21     V19    10.0   1_556     S
V21     V42    10.0   .     S
V22     V28    10.0   1_655     S
V22     V31    10.0   1_655     S
V22     V35    10.0   .     S
V22     V24    10.0   1_554     S
V22     V23    10.0   .     S
V22     V34    10.0   .     S
V23     V29    10.0   1_655     S
V23     V32    10.0   1_655     S
V23     V36    10.0   .     S
V23     V24    10.0   .     S
V23     V35    10.0   .     S
V24     V30    10.0   1_655     S
V24     V33    10.0   1_655     S
V24     V10    10.0   1_556     S
V24     V34    10.0   1_556     S
V24     V22    10.0   1_556     S
V24     V36    10.0   .     S
V25     V52    10.0   1_545     S
V25     V47    10.0   .     S
V25     V31    10.0   1_545     S
V25     V43    10.0   .     S
V25     V44    10.0   .     S
V25     V27    10.0   1_554     S
V25     V26    10.0   .     S
V25     V32    10.0   1_545     S
V26     V53    10.0   1_545     S
V26     V48    10.0   .     S
V26     V32    10.0   1_545     S
V26     V44    10.0   .     S
V26     V45    10.0   .     S
V26     V27    10.0   .     S
V26     V33    10.0   1_545     S
V27     V54    10.0   1_545     S
V27     V46    10.0   1_556     S
V27     V33    10.0   1_545     S
V27     V45    10.0   .     S
V27     V43    10.0   1_556     S
V27     V25    10.0   1_556     S
V27     V31    10.0   1_546     S
V28     V11    10.0   1_455     S
V28     V22    10.0   1_455     S
V28     V32    10.0   .     S
V28     V53    10.0   .     S
V28     V52    10.0   .     S
V28     V30    10.0   1_554     S
V28     V29    10.0   .     S
V29     V12    10.0   1_455     S
V29     V23    10.0   1_455     S
V29     V33    10.0   .     S
V29     V54    10.0   .     S
V29     V53    10.0   .     S
V29     V30    10.0   .     S
V30     V10    10.0   1_456     S
V30     V24    10.0   1_455     S
V30     V31    10.0   1_556     S
V30     V52    10.0   1_556     S
V30     V19    10.0   1_556     S
V30     V54    10.0   .     S
V30     V28    10.0   1_556     S
V31     V52    10.0   .     S
V31     V30    10.0   1_554     S
V31     V22    10.0   1_455     S
V31     V25    10.0   1_565     S
V31     V4    10.0   1_455     S
V31     V27    10.0   1_564     S
V31     V32    10.0   .     S
V31     V33    10.0   1_554     S
V31     V6    10.0   1_454     S
V32     V53    10.0   .     S
V32     V23    10.0   1_455     S
V32     V26    10.0   1_565     S
V32     V5    10.0   1_455     S
V32     V25    10.0   1_565     S
V32     V33    10.0   .     S
V32     V4    10.0   1_455     S
V33     V54    10.0   .     S
V33     V24    10.0   1_455     S
V33     V27    10.0   1_565     S
V33     V6    10.0   1_455     S
V33     V26    10.0   1_565     S
V33     V31    10.0   1_556     S
V33     V5    10.0   1_455     S
V34     V42    10.0   1_554     S
V34     V6    10.0   1_554     S
V34     V18    10.0   1_554     S
V34     V24    10.0   1_554     S
V34     V35    10.0   .     S
V34     V36    10.0   1_554     S
V35     V40    10.0   .     S
V35     V36    10.0   .     S
V36     V41    10.0   .     S
V36     V34    10.0   1_556     S
V37     V49    10.0   .     S
V37     V19    10.0   1_655     S
V37     V7    10.0   1_545     S
V37     V43    10.0   1_655     S
V37     V44    10.0   1_655     S
V37     V39    10.0   1_554     S
V37     V38    10.0   .     S
V37     V8    10.0   1_545     S
V38     V50    10.0   .     S
V38     V20    10.0   1_655     S
V38     V8    10.0   1_545     S
V38     V44    10.0   1_655     S
V38     V45    10.0   1_655     S
V38     V39    10.0   .     S
V38     V9    10.0   1_545     S
V39     V51    10.0   .     S
V39     V10    10.0   1_556     S
V39     V21    10.0   1_655     S
V39     V9    10.0   1_545     S
V39     V45    10.0   1_655     S
V39     V43    10.0   1_656     S
V39     V37    10.0   1_556     S
V39     V7    10.0   1_546     S
V40     V44    10.0   .     S
V40     V42    10.0   1_554     S
V40     V41    10.0   .     S
V41     V45    10.0   .     S
V41     V42    10.0   .     S
V42     V34    10.0   1_556     S
V42     V43    10.0   1_556     S
V42     V19    10.0   1_556     S
V42     V13    10.0   1_556     S
V42     V40    10.0   1_556     S
V43     V42    10.0   1_554     S
V43     V37    10.0   1_455     S
V43     V27    10.0   1_554     S
V43     V39    10.0   1_454     S
V43     V44    10.0   .     S
V43     V45    10.0   1_554     S
V44     V38    10.0   1_455     S
V44     V37    10.0   1_455     S
V44     V45    10.0   .     S
V45     V39    10.0   1_455     S
V45     V38    10.0   1_455     S
V45     V43    10.0   1_556     S
V46     V49    10.0   .     S
V46     V27    10.0   1_554     S
V46     V3    10.0   1_544     S
V46     V52    10.0   1_545     S
V46     V18    10.0   1_554     S
V46     V51    10.0   1_554     S
V46     V47    10.0   .     S
V46     V48    10.0   1_554     S
V47     V50    10.0   .     S
V47     V1    10.0   1_545     S
V47     V53    10.0   1_545     S
V47     V49    10.0   .     S
V47     V48    10.0   .     S
V48     V51    10.0   .     S
V48     V2    10.0   1_545     S
V48     V54    10.0   1_545     S
V48     V50    10.0   .     S
V48     V46    10.0   1_556     S
V49     V51    10.0   1_554     S
V49     V50    10.0   .     S
V49     V7    10.0   1_545     S
V49     V1    10.0   1_545     S
V50     V51    10.0   .     S
V50     V8    10.0   1_545     S
V50     V2    10.0   1_545     S
V51     V49    10.0   1_556     S
V51     V9    10.0   1_545     S
V51     V3    10.0   1_545     S
V51     V46    10.0   1_556     S
V51     V10    10.0   1_556     S
V52     V25    10.0   1_565     S
V52     V46    10.0   1_565     S
V52     V30    10.0   1_554     S
V52     V3    10.0   1_554     S
V52     V53    10.0   .     S
V52     V54    10.0   1_554     S
V53     V26    10.0   1_565     S
V53     V47    10.0   1_565     S
V53     V54    10.0   .     S
V54     V27    10.0   1_565     S
V54     V48    10.0   1_565     S
V54     V52    10.0   1_556     S
