data_ncl
_audit_creation_date              2019-12-31
_audit_creation_method            'Pymatgen'
_symmetry_space_group_name_H-M    'P1'
_symmetry_Int_Tables_number       1
loop_
_symmetry_equiv_pos_as_xyz
  x,y,z
_cell_length_a                    31.7981
_cell_length_b                    31.7981
_cell_length_c                    32.6596
_cell_angle_alpha                 90.0
_cell_angle_beta                 90.0
_cell_angle_gamma                 120.0
loop_
_atom_site_label
_atom_site_type_symbol
_atom_site_fract_x
_atom_site_fract_y
_atom_site_fract_z
V1     V     0.5201   0.6777   0.2083
V2     V     0.5201   0.6777   0.7083
V3     V     0.8132   0.989   0.125
V4     V     0.8132   0.989   0.625
V5     V     0.4799   0.3223   0.2917
V6     V     0.4799   0.3223   0.7917
V7     V     0.1868   0.011   0.375
V8     V     0.1868   0.011   0.875
V9     V     0.6557   0.5092   0.0417
V10     V     0.6557   0.5092   0.5417
V11     V     0.3443   0.4908   0.4583
V12     V     0.3443   0.4908   0.9583
V13     V     0.011   0.8242   0.125
V14     V     0.011   0.8242   0.625
V15     V     0.3223   0.8425   0.2083
V16     V     0.3223   0.8425   0.7083
V17     V     0.4908   0.1465   0.0417
V18     V     0.4908   0.1465   0.5417
V19     V     0.5092   0.8535   0.4583
V20     V     0.5092   0.8535   0.9583
V21     V     0.6777   0.1575   0.2917
V22     V     0.6777   0.1575   0.7917
V23     V     0.989   0.1758   0.375
V24     V     0.989   0.1758   0.875
V25     V     0.1575   0.4799   0.2083
V26     V     0.1575   0.4799   0.7083
V27     V     0.1758   0.1868   0.125
V28     V     0.1758   0.1868   0.625
V29     V     0.8425   0.5201   0.2917
V30     V     0.8425   0.5201   0.7917
V31     V     0.8242   0.8132   0.375
V32     V     0.8242   0.8132   0.875
V33     V     0.8535   0.3443   0.0417
V34     V     0.8535   0.3443   0.5417
V35     V     0.1465   0.6557   0.4583
V36     V     0.1465   0.6557   0.9583
loop_
_geom_bond_atom_site_label_1
_geom_bond_atom_site_label_2
_geom_bond_distance
_geom_bond_site_symmetry_2
_ccdc_geom_bond_type
V1     V15    10.0   .     S
V1     V3    10.0   .     S
V1     V31    10.0   .     S
V1     V20    10.0   1_554     S
V1     V19    10.0   .     S
V1     V9    10.0   .     S
V1     V11    10.0   .     S
V1     V12    10.0   1_554     S
V1     V25    10.0   .     S
V2     V16    10.0   .     S
V2     V4    10.0   .     S
V2     V32    10.0   .     S
V2     V19    10.0   .     S
V2     V20    10.0   .     S
V2     V10    10.0   .     S
V2     V12    10.0   .     S
V2     V11    10.0   .     S
V2     V26    10.0   .     S
V3     V13    10.0   1_655     S
V3     V20    10.0   1_554     S
V3     V31    10.0   .     S
V3     V32    10.0   1_554     S
V3     V21    10.0   1_565     S
V3     V23    10.0   1_565     S
V3     V24    10.0   1_564     S
V3     V27    10.0   1_665     S
V4     V14    10.0   1_655     S
V4     V19    10.0   .     S
V4     V32    10.0   .     S
V4     V31    10.0   .     S
V4     V22    10.0   1_565     S
V4     V24    10.0   1_565     S
V4     V23    10.0   1_565     S
V4     V28    10.0   1_665     S
V5     V21    10.0   .     S
V5     V7    10.0   .     S
V5     V27    10.0   .     S
V5     V18    10.0   .     S
V5     V17    10.0   .     S
V5     V11    10.0   .     S
V5     V10    10.0   .     S
V5     V9    10.0   .     S
V5     V29    10.0   .     S
V6     V22    10.0   .     S
V6     V8    10.0   .     S
V6     V28    10.0   .     S
V6     V17    10.0   1_556     S
V6     V18    10.0   .     S
V6     V12    10.0   .     S
V6     V9    10.0   1_556     S
V6     V10    10.0   .     S
V6     V30    10.0   .     S
V7     V23    10.0   1_455     S
V7     V18    10.0   .     S
V7     V27    10.0   .     S
V7     V28    10.0   .     S
V7     V15    10.0   1_545     S
V7     V13    10.0   1_545     S
V7     V14    10.0   1_545     S
V7     V31    10.0   1_445     S
V8     V24    10.0   1_455     S
V8     V17    10.0   1_556     S
V8     V28    10.0   .     S
V8     V27    10.0   1_556     S
V8     V16    10.0   1_545     S
V8     V14    10.0   1_545     S
V8     V13    10.0   1_546     S
V8     V32    10.0   1_445     S
V9     V17    10.0   .     S
V9     V12    10.0   1_554     S
V9     V6    10.0   1_554     S
V9     V32    10.0   1_554     S
V9     V30    10.0   1_554     S
V9     V29    10.0   .     S
V9     V33    10.0   .     S
V10     V18    10.0   .     S
V10     V11    10.0   .     S
V10     V31    10.0   .     S
V10     V29    10.0   .     S
V10     V30    10.0   .     S
V10     V34    10.0   .     S
V11     V19    10.0   .     S
V11     V28    10.0   .     S
V11     V26    10.0   .     S
V11     V25    10.0   .     S
V11     V35    10.0   .     S
V12     V20    10.0   .     S
V12     V9    10.0   1_556     S
V12     V1    10.0   1_556     S
V12     V27    10.0   1_556     S
V12     V25    10.0   1_556     S
V12     V26    10.0   .     S
V12     V36    10.0   .     S
V13     V3    10.0   1_455     S
V13     V27    10.0   1_565     S
V13     V15    10.0   .     S
V13     V36    10.0   1_554     S
V13     V7    10.0   1_565     S
V13     V8    10.0   1_564     S
V13     V29    10.0   1_455     S
V13     V31    10.0   1_455     S
V13     V32    10.0   1_454     S
V14     V4    10.0   1_455     S
V14     V28    10.0   1_565     S
V14     V16    10.0   .     S
V14     V35    10.0   .     S
V14     V8    10.0   1_565     S
V14     V7    10.0   1_565     S
V14     V30    10.0   1_455     S
V14     V32    10.0   1_455     S
V14     V31    10.0   1_455     S
V15     V25    10.0   .     S
V15     V7    10.0   1_565     S
V15     V36    10.0   1_554     S
V15     V35    10.0   .     S
V15     V17    10.0   1_565     S
V15     V19    10.0   .     S
V15     V20    10.0   1_554     S
V16     V26    10.0   .     S
V16     V8    10.0   1_565     S
V16     V35    10.0   .     S
V16     V36    10.0   .     S
V16     V18    10.0   1_565     S
V16     V20    10.0   .     S
V16     V19    10.0   .     S
V17     V8    10.0   1_554     S
V17     V6    10.0   1_554     S
V17     V33    10.0   .     S
V17     V20    10.0   1_544     S
V17     V15    10.0   1_545     S
V17     V21    10.0   .     S
V17     V22    10.0   1_554     S
V18     V34    10.0   .     S
V18     V19    10.0   1_545     S
V18     V16    10.0   1_545     S
V18     V22    10.0   .     S
V18     V21    10.0   .     S
V19     V35    10.0   .     S
V19     V18    10.0   1_565     S
V19     V21    10.0   1_565     S
V20     V3    10.0   1_556     S
V20     V1    10.0   1_556     S
V20     V36    10.0   .     S
V20     V17    10.0   1_566     S
V20     V22    10.0   1_565     S
V20     V15    10.0   1_556     S
V21     V19    10.0   1_545     S
V21     V29    10.0   .     S
V21     V23    10.0   .     S
V21     V3    10.0   1_545     S
V21     V34    10.0   .     S
V21     V33    10.0   .     S
V22     V20    10.0   1_545     S
V22     V17    10.0   1_556     S
V22     V30    10.0   .     S
V22     V24    10.0   .     S
V22     V4    10.0   1_545     S
V22     V33    10.0   1_556     S
V22     V34    10.0   .     S
V23     V7    10.0   1_655     S
V23     V31    10.0   1_545     S
V23     V34    10.0   .     S
V23     V3    10.0   1_545     S
V23     V4    10.0   1_545     S
V23     V25    10.0   1_655     S
V23     V27    10.0   1_655     S
V23     V28    10.0   1_655     S
V24     V8    10.0   1_655     S
V24     V32    10.0   1_545     S
V24     V33    10.0   1_556     S
V24     V4    10.0   1_545     S
V24     V3    10.0   1_546     S
V24     V26    10.0   1_655     S
V24     V28    10.0   1_655     S
V24     V27    10.0   1_656     S
V25     V27    10.0   .     S
V25     V23    10.0   1_455     S
V25     V12    10.0   1_554     S
V25     V33    10.0   1_455     S
V25     V35    10.0   .     S
V25     V36    10.0   1_554     S
V26     V28    10.0   .     S
V26     V24    10.0   1_455     S
V26     V34    10.0   1_455     S
V26     V36    10.0   .     S
V26     V35    10.0   .     S
V27     V8    10.0   1_554     S
V27     V13    10.0   1_545     S
V27     V3    10.0   1_445     S
V27     V12    10.0   1_554     S
V27     V23    10.0   1_455     S
V27     V24    10.0   1_454     S
V28     V14    10.0   1_545     S
V28     V4    10.0   1_445     S
V28     V24    10.0   1_455     S
V28     V23    10.0   1_455     S
V29     V31    10.0   .     S
V29     V13    10.0   1_655     S
V29     V35    10.0   1_655     S
V29     V33    10.0   .     S
V29     V34    10.0   .     S
V30     V32    10.0   .     S
V30     V14    10.0   1_655     S
V30     V9    10.0   1_556     S
V30     V36    10.0   1_655     S
V30     V34    10.0   .     S
V30     V33    10.0   1_556     S
V31     V23    10.0   1_565     S
V31     V7    10.0   1_665     S
V31     V13    10.0   1_655     S
V31     V14    10.0   1_655     S
V32     V3    10.0   1_556     S
V32     V24    10.0   1_565     S
V32     V8    10.0   1_665     S
V32     V9    10.0   1_556     S
V32     V14    10.0   1_655     S
V32     V13    10.0   1_656     S
V33     V24    10.0   1_554     S
V33     V22    10.0   1_554     S
V33     V36    10.0   1_654     S
V33     V25    10.0   1_655     S
V33     V30    10.0   1_554     S
V34     V35    10.0   1_655     S
V34     V26    10.0   1_655     S
V35     V34    10.0   1_455     S
V35     V29    10.0   1_455     S
V36     V13    10.0   1_556     S
V36     V15    10.0   1_556     S
V36     V33    10.0   1_456     S
V36     V30    10.0   1_455     S
V36     V25    10.0   1_556     S
