data_ncm
_audit_creation_date              2019-12-31
_audit_creation_method            'Pymatgen'
_symmetry_space_group_name_H-M    'P1'
_symmetry_Int_Tables_number       1
loop_
_symmetry_equiv_pos_as_xyz
  x,y,z
_cell_length_a                    34.641
_cell_length_b                    74.641
_cell_length_c                    30.0
_cell_angle_alpha                 90.0
_cell_angle_beta                 90.0
_cell_angle_gamma                 90.0
loop_
_atom_site_label
_atom_site_type_symbol
_atom_site_fract_x
_atom_site_fract_y
_atom_site_fract_z
V1     V     0.3125   0.058   0.0417
V2     V     0.3125   0.058   0.375
V3     V     0.3125   0.058   0.7083
V4     V     0.8125   0.058   0.0417
V5     V     0.8125   0.058   0.375
V6     V     0.8125   0.058   0.7083
V7     V     0.0625   0.058   0.2083
V8     V     0.0625   0.058   0.5417
V9     V     0.0625   0.058   0.875
V10     V     0.5625   0.058   0.2083
V11     V     0.5625   0.058   0.5417
V12     V     0.5625   0.058   0.875
V13     V     0.4375   0.942   0.125
V14     V     0.4375   0.942   0.4583
V15     V     0.4375   0.942   0.7917
V16     V     0.9375   0.942   0.125
V17     V     0.9375   0.942   0.4583
V18     V     0.9375   0.942   0.7917
V19     V     0.1875   0.942   0.2917
V20     V     0.1875   0.942   0.625
V21     V     0.1875   0.942   0.9583
V22     V     0.6875   0.942   0.2917
V23     V     0.6875   0.942   0.625
V24     V     0.6875   0.942   0.9583
V25     V     0.4375   0.308   0.2917
V26     V     0.4375   0.308   0.625
V27     V     0.4375   0.308   0.9583
V28     V     0.9375   0.308   0.2917
V29     V     0.9375   0.308   0.625
V30     V     0.9375   0.308   0.9583
V31     V     0.3125   0.192   0.0417
V32     V     0.3125   0.192   0.375
V33     V     0.3125   0.192   0.7083
V34     V     0.8125   0.192   0.0417
V35     V     0.8125   0.192   0.375
V36     V     0.8125   0.192   0.7083
V37     V     0.0625   0.192   0.2083
V38     V     0.0625   0.192   0.5417
V39     V     0.0625   0.192   0.875
V40     V     0.5625   0.192   0.2083
V41     V     0.5625   0.192   0.5417
V42     V     0.5625   0.192   0.875
V43     V     0.1875   0.308   0.125
V44     V     0.1875   0.308   0.4583
V45     V     0.1875   0.308   0.7917
V46     V     0.6875   0.308   0.125
V47     V     0.6875   0.308   0.4583
V48     V     0.6875   0.308   0.7917
V49     V     0.3125   0.692   0.2083
V50     V     0.3125   0.692   0.5417
V51     V     0.3125   0.692   0.875
V52     V     0.8125   0.692   0.2083
V53     V     0.8125   0.692   0.5417
V54     V     0.8125   0.692   0.875
V55     V     0.0625   0.692   0.0417
V56     V     0.0625   0.692   0.375
V57     V     0.0625   0.692   0.7083
V58     V     0.5625   0.692   0.0417
V59     V     0.5625   0.692   0.375
V60     V     0.5625   0.692   0.7083
V61     V     0.4375   0.808   0.125
V62     V     0.4375   0.808   0.4583
V63     V     0.4375   0.808   0.7917
V64     V     0.9375   0.808   0.125
V65     V     0.9375   0.808   0.4583
V66     V     0.9375   0.808   0.7917
V67     V     0.1875   0.808   0.2917
V68     V     0.1875   0.808   0.625
V69     V     0.1875   0.808   0.9583
V70     V     0.6875   0.808   0.2917
V71     V     0.6875   0.808   0.625
V72     V     0.6875   0.808   0.9583
V73     V     0.4375   0.442   0.2917
V74     V     0.4375   0.442   0.625
V75     V     0.4375   0.442   0.9583
V76     V     0.9375   0.442   0.2917
V77     V     0.9375   0.442   0.625
V78     V     0.9375   0.442   0.9583
V79     V     0.3125   0.558   0.2083
V80     V     0.3125   0.558   0.5417
V81     V     0.3125   0.558   0.875
V82     V     0.8125   0.558   0.2083
V83     V     0.8125   0.558   0.5417
V84     V     0.8125   0.558   0.875
V85     V     0.0625   0.558   0.0417
V86     V     0.0625   0.558   0.375
V87     V     0.0625   0.558   0.7083
V88     V     0.5625   0.558   0.0417
V89     V     0.5625   0.558   0.375
V90     V     0.5625   0.558   0.7083
V91     V     0.1875   0.442   0.125
V92     V     0.1875   0.442   0.4583
V93     V     0.1875   0.442   0.7917
V94     V     0.6875   0.442   0.125
V95     V     0.6875   0.442   0.4583
V96     V     0.6875   0.442   0.7917
loop_
_geom_bond_atom_site_label_1
_geom_bond_atom_site_label_2
_geom_bond_distance
_geom_bond_site_symmetry_2
_ccdc_geom_bond_type
V1     V13    10.0   1_545     S
V1     V10    10.0   .     S
V1     V9    10.0   1_554     S
V1     V21    10.0   1_544     S
V1     V12    10.0   1_554     S
V1     V2    10.0   .     S
V1     V3    10.0   1_554     S
V1     V7    10.0   .     S
V1     V31    10.0   .     S
V2     V14    10.0   1_545     S
V2     V11    10.0   .     S
V2     V7    10.0   .     S
V2     V19    10.0   1_545     S
V2     V10    10.0   .     S
V2     V3    10.0   .     S
V2     V8    10.0   .     S
V2     V32    10.0   .     S
V3     V15    10.0   1_545     S
V3     V12    10.0   .     S
V3     V8    10.0   .     S
V3     V20    10.0   1_545     S
V3     V11    10.0   .     S
V3     V1    10.0   1_556     S
V3     V9    10.0   .     S
V3     V33    10.0   .     S
V4     V16    10.0   1_545     S
V4     V7    10.0   1_655     S
V4     V12    10.0   1_554     S
V4     V24    10.0   1_544     S
V4     V9    10.0   1_654     S
V4     V5    10.0   .     S
V4     V6    10.0   1_554     S
V4     V10    10.0   .     S
V4     V34    10.0   .     S
V5     V17    10.0   1_545     S
V5     V8    10.0   1_655     S
V5     V10    10.0   .     S
V5     V22    10.0   1_545     S
V5     V7    10.0   1_655     S
V5     V6    10.0   .     S
V5     V11    10.0   .     S
V5     V35    10.0   .     S
V6     V18    10.0   1_545     S
V6     V9    10.0   1_655     S
V6     V11    10.0   .     S
V6     V23    10.0   1_545     S
V6     V8    10.0   1_655     S
V6     V4    10.0   1_556     S
V6     V12    10.0   .     S
V6     V36    10.0   .     S
V7     V4    10.0   1_455     S
V7     V16    10.0   1_445     S
V7     V19    10.0   1_545     S
V7     V5    10.0   1_455     S
V7     V9    10.0   1_554     S
V7     V8    10.0   .     S
V7     V37    10.0   .     S
V8     V5    10.0   1_455     S
V8     V17    10.0   1_445     S
V8     V20    10.0   1_545     S
V8     V6    10.0   1_455     S
V8     V9    10.0   .     S
V8     V38    10.0   .     S
V9     V6    10.0   1_455     S
V9     V18    10.0   1_445     S
V9     V21    10.0   1_545     S
V9     V1    10.0   1_556     S
V9     V4    10.0   1_456     S
V9     V7    10.0   1_556     S
V9     V39    10.0   .     S
V10     V13    10.0   1_545     S
V10     V22    10.0   1_545     S
V10     V12    10.0   1_554     S
V10     V11    10.0   .     S
V10     V40    10.0   .     S
V11     V14    10.0   1_545     S
V11     V23    10.0   1_545     S
V11     V12    10.0   .     S
V11     V41    10.0   .     S
V12     V15    10.0   1_545     S
V12     V24    10.0   1_545     S
V12     V4    10.0   1_556     S
V12     V1    10.0   1_556     S
V12     V10    10.0   1_556     S
V12     V42    10.0   .     S
V13     V1    10.0   1_565     S
V13     V10    10.0   1_565     S
V13     V21    10.0   1_554     S
V13     V22    10.0   .     S
V13     V19    10.0   .     S
V13     V14    10.0   .     S
V13     V15    10.0   1_554     S
V13     V24    10.0   1_554     S
V13     V61    10.0   .     S
V14     V2    10.0   1_565     S
V14     V11    10.0   1_565     S
V14     V19    10.0   .     S
V14     V23    10.0   .     S
V14     V20    10.0   .     S
V14     V15    10.0   .     S
V14     V22    10.0   .     S
V14     V62    10.0   .     S
V15     V3    10.0   1_565     S
V15     V12    10.0   1_565     S
V15     V20    10.0   .     S
V15     V24    10.0   .     S
V15     V21    10.0   .     S
V15     V13    10.0   1_556     S
V15     V23    10.0   .     S
V15     V63    10.0   .     S
V16     V4    10.0   1_565     S
V16     V7    10.0   1_665     S
V16     V24    10.0   1_554     S
V16     V19    10.0   1_655     S
V16     V22    10.0   .     S
V16     V17    10.0   .     S
V16     V18    10.0   1_554     S
V16     V21    10.0   1_654     S
V16     V64    10.0   .     S
V17     V5    10.0   1_565     S
V17     V8    10.0   1_665     S
V17     V22    10.0   .     S
V17     V20    10.0   1_655     S
V17     V23    10.0   .     S
V17     V18    10.0   .     S
V17     V19    10.0   1_655     S
V17     V65    10.0   .     S
V18     V6    10.0   1_565     S
V18     V9    10.0   1_665     S
V18     V23    10.0   .     S
V18     V21    10.0   1_655     S
V18     V24    10.0   .     S
V18     V16    10.0   1_556     S
V18     V20    10.0   1_655     S
V18     V66    10.0   .     S
V19     V7    10.0   1_565     S
V19     V2    10.0   1_565     S
V19     V16    10.0   1_455     S
V19     V17    10.0   1_455     S
V19     V21    10.0   1_554     S
V19     V20    10.0   .     S
V19     V67    10.0   .     S
V20     V8    10.0   1_565     S
V20     V3    10.0   1_565     S
V20     V17    10.0   1_455     S
V20     V18    10.0   1_455     S
V20     V21    10.0   .     S
V20     V68    10.0   .     S
V21     V9    10.0   1_565     S
V21     V1    10.0   1_566     S
V21     V13    10.0   1_556     S
V21     V18    10.0   1_455     S
V21     V16    10.0   1_456     S
V21     V19    10.0   1_556     S
V21     V69    10.0   .     S
V22     V10    10.0   1_565     S
V22     V5    10.0   1_565     S
V22     V24    10.0   1_554     S
V22     V23    10.0   .     S
V22     V70    10.0   .     S
V23     V11    10.0   1_565     S
V23     V6    10.0   1_565     S
V23     V24    10.0   .     S
V23     V71    10.0   .     S
V24     V12    10.0   1_565     S
V24     V4    10.0   1_566     S
V24     V16    10.0   1_556     S
V24     V13    10.0   1_556     S
V24     V22    10.0   1_556     S
V24     V72    10.0   .     S
V25     V32    10.0   .     S
V25     V44    10.0   .     S
V25     V40    10.0   .     S
V25     V46    10.0   .     S
V25     V43    10.0   .     S
V25     V27    10.0   1_554     S
V25     V26    10.0   .     S
V25     V47    10.0   .     S
V25     V73    10.0   .     S
V26     V33    10.0   .     S
V26     V45    10.0   .     S
V26     V41    10.0   .     S
V26     V47    10.0   .     S
V26     V44    10.0   .     S
V26     V27    10.0   .     S
V26     V48    10.0   .     S
V26     V74    10.0   .     S
V27     V31    10.0   1_556     S
V27     V43    10.0   1_556     S
V27     V42    10.0   .     S
V27     V48    10.0   .     S
V27     V45    10.0   .     S
V27     V25    10.0   1_556     S
V27     V46    10.0   1_556     S
V27     V75    10.0   .     S
V28     V35    10.0   .     S
V28     V47    10.0   .     S
V28     V37    10.0   1_655     S
V28     V43    10.0   1_655     S
V28     V46    10.0   .     S
V28     V30    10.0   1_554     S
V28     V29    10.0   .     S
V28     V44    10.0   1_655     S
V28     V76    10.0   .     S
V29     V36    10.0   .     S
V29     V48    10.0   .     S
V29     V38    10.0   1_655     S
V29     V44    10.0   1_655     S
V29     V47    10.0   .     S
V29     V30    10.0   .     S
V29     V45    10.0   1_655     S
V29     V77    10.0   .     S
V30     V34    10.0   1_556     S
V30     V46    10.0   1_556     S
V30     V39    10.0   1_655     S
V30     V45    10.0   1_655     S
V30     V48    10.0   .     S
V30     V28    10.0   1_556     S
V30     V43    10.0   1_656     S
V30     V78    10.0   .     S
V31     V27    10.0   1_554     S
V31     V42    10.0   1_554     S
V31     V43    10.0   .     S
V31     V37    10.0   .     S
V31     V40    10.0   .     S
V31     V32    10.0   .     S
V31     V33    10.0   1_554     S
V31     V39    10.0   1_554     S
V32     V40    10.0   .     S
V32     V44    10.0   .     S
V32     V38    10.0   .     S
V32     V41    10.0   .     S
V32     V33    10.0   .     S
V32     V37    10.0   .     S
V33     V41    10.0   .     S
V33     V45    10.0   .     S
V33     V39    10.0   .     S
V33     V42    10.0   .     S
V33     V31    10.0   1_556     S
V33     V38    10.0   .     S
V34     V30    10.0   1_554     S
V34     V39    10.0   1_654     S
V34     V46    10.0   .     S
V34     V40    10.0   .     S
V34     V37    10.0   1_655     S
V34     V35    10.0   .     S
V34     V36    10.0   1_554     S
V34     V42    10.0   1_554     S
V35     V37    10.0   1_655     S
V35     V47    10.0   .     S
V35     V41    10.0   .     S
V35     V38    10.0   1_655     S
V35     V36    10.0   .     S
V35     V40    10.0   .     S
V36     V38    10.0   1_655     S
V36     V48    10.0   .     S
V36     V42    10.0   .     S
V36     V39    10.0   1_655     S
V36     V34    10.0   1_556     S
V36     V41    10.0   .     S
V37     V35    10.0   1_455     S
V37     V28    10.0   1_455     S
V37     V43    10.0   .     S
V37     V34    10.0   1_455     S
V37     V39    10.0   1_554     S
V37     V38    10.0   .     S
V38     V36    10.0   1_455     S
V38     V29    10.0   1_455     S
V38     V44    10.0   .     S
V38     V35    10.0   1_455     S
V38     V39    10.0   .     S
V39     V34    10.0   1_456     S
V39     V30    10.0   1_455     S
V39     V45    10.0   .     S
V39     V36    10.0   1_455     S
V39     V31    10.0   1_556     S
V39     V37    10.0   1_556     S
V40     V46    10.0   .     S
V40     V42    10.0   1_554     S
V40     V41    10.0   .     S
V41     V47    10.0   .     S
V41     V42    10.0   .     S
V42     V31    10.0   1_556     S
V42     V48    10.0   .     S
V42     V34    10.0   1_556     S
V42     V40    10.0   1_556     S
V43     V27    10.0   1_554     S
V43     V28    10.0   1_455     S
V43     V30    10.0   1_454     S
V43     V44    10.0   .     S
V43     V45    10.0   1_554     S
V43     V91    10.0   .     S
V44     V29    10.0   1_455     S
V44     V28    10.0   1_455     S
V44     V45    10.0   .     S
V44     V92    10.0   .     S
V45     V30    10.0   1_455     S
V45     V29    10.0   1_455     S
V45     V43    10.0   1_556     S
V45     V93    10.0   .     S
V46     V30    10.0   1_554     S
V46     V27    10.0   1_554     S
V46     V47    10.0   .     S
V46     V48    10.0   1_554     S
V46     V94    10.0   .     S
V47     V48    10.0   .     S
V47     V95    10.0   .     S
V48     V46    10.0   1_556     S
V48     V96    10.0   .     S
V49     V61    10.0   .     S
V49     V58    10.0   .     S
V49     V67    10.0   .     S
V49     V56    10.0   .     S
V49     V59    10.0   .     S
V49     V51    10.0   1_554     S
V49     V50    10.0   .     S
V49     V55    10.0   .     S
V49     V79    10.0   .     S
V50     V62    10.0   .     S
V50     V59    10.0   .     S
V50     V68    10.0   .     S
V50     V57    10.0   .     S
V50     V60    10.0   .     S
V50     V51    10.0   .     S
V50     V56    10.0   .     S
V50     V80    10.0   .     S
V51     V63    10.0   .     S
V51     V60    10.0   .     S
V51     V69    10.0   .     S
V51     V55    10.0   1_556     S
V51     V58    10.0   1_556     S
V51     V49    10.0   1_556     S
V51     V57    10.0   .     S
V51     V81    10.0   .     S
V52     V64    10.0   .     S
V52     V55    10.0   1_655     S
V52     V70    10.0   .     S
V52     V59    10.0   .     S
V52     V56    10.0   1_655     S
V52     V54    10.0   1_554     S
V52     V53    10.0   .     S
V52     V58    10.0   .     S
V52     V82    10.0   .     S
V53     V65    10.0   .     S
V53     V56    10.0   1_655     S
V53     V71    10.0   .     S
V53     V60    10.0   .     S
V53     V57    10.0   1_655     S
V53     V54    10.0   .     S
V53     V59    10.0   .     S
V53     V83    10.0   .     S
V54     V66    10.0   .     S
V54     V57    10.0   1_655     S
V54     V72    10.0   .     S
V54     V58    10.0   1_556     S
V54     V55    10.0   1_656     S
V54     V52    10.0   1_556     S
V54     V60    10.0   .     S
V54     V84    10.0   .     S
V55     V52    10.0   1_455     S
V55     V64    10.0   1_455     S
V55     V69    10.0   1_554     S
V55     V51    10.0   1_554     S
V55     V54    10.0   1_454     S
V55     V56    10.0   .     S
V55     V57    10.0   1_554     S
V55     V85    10.0   .     S
V56     V53    10.0   1_455     S
V56     V65    10.0   1_455     S
V56     V67    10.0   .     S
V56     V52    10.0   1_455     S
V56     V57    10.0   .     S
V56     V86    10.0   .     S
V57     V54    10.0   1_455     S
V57     V66    10.0   1_455     S
V57     V68    10.0   .     S
V57     V53    10.0   1_455     S
V57     V55    10.0   1_556     S
V57     V87    10.0   .     S
V58     V61    10.0   .     S
V58     V72    10.0   1_554     S
V58     V54    10.0   1_554     S
V58     V51    10.0   1_554     S
V58     V59    10.0   .     S
V58     V60    10.0   1_554     S
V58     V88    10.0   .     S
V59     V62    10.0   .     S
V59     V70    10.0   .     S
V59     V60    10.0   .     S
V59     V89    10.0   .     S
V60     V63    10.0   .     S
V60     V71    10.0   .     S
V60     V58    10.0   1_556     S
V60     V90    10.0   .     S
V61     V67    10.0   .     S
V61     V72    10.0   1_554     S
V61     V69    10.0   1_554     S
V61     V62    10.0   .     S
V61     V63    10.0   1_554     S
V61     V70    10.0   .     S
V62     V68    10.0   .     S
V62     V70    10.0   .     S
V62     V67    10.0   .     S
V62     V63    10.0   .     S
V62     V71    10.0   .     S
V63     V69    10.0   .     S
V63     V71    10.0   .     S
V63     V68    10.0   .     S
V63     V61    10.0   1_556     S
V63     V72    10.0   .     S
V64     V55    10.0   1_655     S
V64     V70    10.0   .     S
V64     V69    10.0   1_654     S
V64     V72    10.0   1_554     S
V64     V65    10.0   .     S
V64     V66    10.0   1_554     S
V64     V67    10.0   1_655     S
V65     V56    10.0   1_655     S
V65     V71    10.0   .     S
V65     V67    10.0   1_655     S
V65     V70    10.0   .     S
V65     V66    10.0   .     S
V65     V68    10.0   1_655     S
V66     V57    10.0   1_655     S
V66     V72    10.0   .     S
V66     V68    10.0   1_655     S
V66     V71    10.0   .     S
V66     V64    10.0   1_556     S
V66     V69    10.0   1_655     S
V67     V65    10.0   1_455     S
V67     V64    10.0   1_455     S
V67     V69    10.0   1_554     S
V67     V68    10.0   .     S
V68     V66    10.0   1_455     S
V68     V65    10.0   1_455     S
V68     V69    10.0   .     S
V69     V55    10.0   1_556     S
V69     V64    10.0   1_456     S
V69     V61    10.0   1_556     S
V69     V66    10.0   1_455     S
V69     V67    10.0   1_556     S
V70     V72    10.0   1_554     S
V70     V71    10.0   .     S
V71     V72    10.0   .     S
V72     V58    10.0   1_556     S
V72     V61    10.0   1_556     S
V72     V64    10.0   1_556     S
V72     V70    10.0   1_556     S
V73     V79    10.0   .     S
V73     V91    10.0   .     S
V73     V89    10.0   .     S
V73     V95    10.0   .     S
V73     V92    10.0   .     S
V73     V75    10.0   1_554     S
V73     V74    10.0   .     S
V73     V94    10.0   .     S
V74     V80    10.0   .     S
V74     V92    10.0   .     S
V74     V90    10.0   .     S
V74     V96    10.0   .     S
V74     V93    10.0   .     S
V74     V75    10.0   .     S
V74     V95    10.0   .     S
V75     V81    10.0   .     S
V75     V93    10.0   .     S
V75     V88    10.0   1_556     S
V75     V94    10.0   1_556     S
V75     V91    10.0   1_556     S
V75     V73    10.0   1_556     S
V75     V96    10.0   .     S
V76     V82    10.0   .     S
V76     V94    10.0   .     S
V76     V86    10.0   1_655     S
V76     V92    10.0   1_655     S
V76     V95    10.0   .     S
V76     V78    10.0   1_554     S
V76     V77    10.0   .     S
V76     V91    10.0   1_655     S
V77     V83    10.0   .     S
V77     V95    10.0   .     S
V77     V87    10.0   1_655     S
V77     V93    10.0   1_655     S
V77     V96    10.0   .     S
V77     V78    10.0   .     S
V77     V92    10.0   1_655     S
V78     V84    10.0   .     S
V78     V96    10.0   .     S
V78     V85    10.0   1_656     S
V78     V91    10.0   1_656     S
V78     V94    10.0   1_556     S
V78     V76    10.0   1_556     S
V78     V93    10.0   1_655     S
V79     V89    10.0   .     S
V79     V91    10.0   .     S
V79     V85    10.0   .     S
V79     V88    10.0   .     S
V79     V81    10.0   1_554     S
V79     V80    10.0   .     S
V79     V86    10.0   .     S
V80     V90    10.0   .     S
V80     V92    10.0   .     S
V80     V86    10.0   .     S
V80     V89    10.0   .     S
V80     V81    10.0   .     S
V80     V87    10.0   .     S
V81     V88    10.0   1_556     S
V81     V93    10.0   .     S
V81     V87    10.0   .     S
V81     V90    10.0   .     S
V81     V79    10.0   1_556     S
V81     V85    10.0   1_556     S
V82     V86    10.0   1_655     S
V82     V94    10.0   .     S
V82     V88    10.0   .     S
V82     V85    10.0   1_655     S
V82     V84    10.0   1_554     S
V82     V83    10.0   .     S
V82     V89    10.0   .     S
V83     V87    10.0   1_655     S
V83     V95    10.0   .     S
V83     V89    10.0   .     S
V83     V86    10.0   1_655     S
V83     V84    10.0   .     S
V83     V90    10.0   .     S
V84     V85    10.0   1_656     S
V84     V96    10.0   .     S
V84     V90    10.0   .     S
V84     V87    10.0   1_655     S
V84     V82    10.0   1_556     S
V84     V88    10.0   1_556     S
V85     V84    10.0   1_454     S
V85     V91    10.0   .     S
V85     V78    10.0   1_454     S
V85     V82    10.0   1_455     S
V85     V81    10.0   1_554     S
V85     V86    10.0   .     S
V85     V87    10.0   1_554     S
V86     V82    10.0   1_455     S
V86     V92    10.0   .     S
V86     V76    10.0   1_455     S
V86     V83    10.0   1_455     S
V86     V87    10.0   .     S
V87     V83    10.0   1_455     S
V87     V93    10.0   .     S
V87     V77    10.0   1_455     S
V87     V84    10.0   1_455     S
V87     V85    10.0   1_556     S
V88     V81    10.0   1_554     S
V88     V94    10.0   .     S
V88     V75    10.0   1_554     S
V88     V84    10.0   1_554     S
V88     V89    10.0   .     S
V88     V90    10.0   1_554     S
V89     V95    10.0   .     S
V89     V90    10.0   .     S
V90     V96    10.0   .     S
V90     V88    10.0   1_556     S
V91     V78    10.0   1_454     S
V91     V75    10.0   1_554     S
V91     V76    10.0   1_455     S
V91     V92    10.0   .     S
V91     V93    10.0   1_554     S
V92     V76    10.0   1_455     S
V92     V77    10.0   1_455     S
V92     V93    10.0   .     S
V93     V77    10.0   1_455     S
V93     V78    10.0   1_455     S
V93     V91    10.0   1_556     S
V94     V75    10.0   1_554     S
V94     V78    10.0   1_554     S
V94     V95    10.0   .     S
V94     V96    10.0   1_554     S
V95     V96    10.0   .     S
V96     V94    10.0   1_556     S
