data_neb-e
_audit_creation_date              2019-12-31
_audit_creation_method            'Pymatgen'
_symmetry_space_group_name_H-M    'P1'
_symmetry_Int_Tables_number       1
loop_
_symmetry_equiv_pos_as_xyz
  x,y,z
_cell_length_a                    35.7772
_cell_length_b                    56.5687
_cell_length_c                    35.7768
_cell_angle_alpha                 90.0
_cell_angle_beta                 90.0
_cell_angle_gamma                 90.0
loop_
_atom_site_label
_atom_site_type_symbol
_atom_site_fract_x
_atom_site_fract_y
_atom_site_fract_z
Er1     Er     0.4375   0.875   0.0625
Er2     Er     0.9375   0.875   0.0625
Er3     Er     0.1875   0.875   0.1875
Er4     Er     0.6875   0.875   0.1875
V5     V     0.125   0.5   0.25
V6     V     0.625   0.5   0.25
V7     V     0.0   0.5   0.0
V8     V     0.5   0.5   0.0
V9     V     0.375   0.5   0.75
V10     V     0.875   0.5   0.75
V11     V     0.25   0.5   0.5
V12     V     0.75   0.5   0.5
Er13     Er     0.1875   0.375   0.6875
Er14     Er     0.6875   0.375   0.6875
Er15     Er     0.0625   0.625   0.8125
Er16     Er     0.5625   0.625   0.8125
Er17     Er     0.1875   0.375   0.0625
Er18     Er     0.6875   0.375   0.0625
Er19     Er     0.4375   0.375   0.1875
Er20     Er     0.9375   0.375   0.1875
Er21     Er     0.3125   0.625   0.3125
Er22     Er     0.8125   0.625   0.3125
Er23     Er     0.0625   0.625   0.4375
Er24     Er     0.5625   0.625   0.4375
Er25     Er     0.4375   0.375   0.5625
Er26     Er     0.9375   0.375   0.5625
Er27     Er     0.3125   0.625   0.9375
Er28     Er     0.8125   0.625   0.9375
V29     V     0.0   0.75   0.25
V30     V     0.5   0.75   0.25
V31     V     0.125   0.75   0.0
V32     V     0.625   0.75   0.0
V33     V     0.25   0.75   0.75
V34     V     0.75   0.75   0.75
V35     V     0.375   0.75   0.5
V36     V     0.875   0.75   0.5
Er37     Er     0.4375   0.875   0.6875
Er38     Er     0.9375   0.875   0.6875
Er39     Er     0.1875   0.875   0.5625
Er40     Er     0.6875   0.875   0.5625
V41     V     0.25   0.25   0.25
V42     V     0.75   0.25   0.25
V43     V     0.0   0.25   0.75
V44     V     0.5   0.25   0.75
V45     V     0.125   0.25   0.5
V46     V     0.625   0.25   0.5
V47     V     0.375   0.25   0.0
V48     V     0.875   0.25   0.0
V49     V     0.25   0.0   0.0
V50     V     0.75   0.0   0.0
V51     V     0.375   0.0   0.25
V52     V     0.875   0.0   0.25
V53     V     0.125   0.0   0.75
V54     V     0.625   0.0   0.75
V55     V     0.0   0.0   0.5
V56     V     0.5   0.0   0.5
Er57     Er     0.0625   0.125   0.3125
Er58     Er     0.5625   0.125   0.3125
Er59     Er     0.3125   0.125   0.8125
Er60     Er     0.8125   0.125   0.8125
Er61     Er     0.3125   0.125   0.4375
Er62     Er     0.8125   0.125   0.4375
Er63     Er     0.0625   0.125   0.9375
Er64     Er     0.5625   0.125   0.9375
loop_
_geom_bond_atom_site_label_1
_geom_bond_atom_site_label_2
_geom_bond_distance
_geom_bond_site_symmetry_2
_ccdc_geom_bond_type
Er1     V49    10.0   1_565     S
Er1     V51    10.0   1_565     S
Er1     Er3    10.0   .     S
Er1     V32    10.0   .     S
Er1     V30    10.0   .     S
Er1     Er4    10.0   .     S
Er2     V50    10.0   1_565     S
Er2     V52    10.0   1_565     S
Er2     Er4    10.0   .     S
Er2     V31    10.0   1_655     S
Er2     V29    10.0   1_655     S
Er2     Er3    10.0   1_655     S
Er3     V51    10.0   1_565     S
Er3     V49    10.0   1_565     S
Er3     V29    10.0   .     S
Er3     V31    10.0   .     S
Er3     Er2    10.0   1_455     S
Er4     V52    10.0   1_565     S
Er4     V50    10.0   1_565     S
Er4     V30    10.0   .     S
Er4     V32    10.0   .     S
V5     Er23    10.0   .     S
V5     Er21    10.0   .     S
V5     Er20    10.0   1_455     S
V5     Er17    10.0   .     S
V5     V11    10.0   .     S
V5     V7    10.0   .     S
V6     Er24    10.0   .     S
V6     Er22    10.0   .     S
V6     Er19    10.0   .     S
V6     Er18    10.0   .     S
V6     V12    10.0   .     S
V6     V8    10.0   .     S
V7     Er20    10.0   1_455     S
V7     Er17    10.0   .     S
V7     Er15    10.0   1_554     S
V7     Er28    10.0   1_454     S
V7     V10    10.0   1_454     S
V8     Er19    10.0   .     S
V8     Er18    10.0   .     S
V8     Er16    10.0   1_554     S
V8     Er27    10.0   1_554     S
V8     V9    10.0   1_554     S
V9     Er25    10.0   .     S
V9     Er16    10.0   .     S
V9     Er27    10.0   .     S
V9     V11    10.0   .     S
V9     V8    10.0   1_556     S
V9     Er13    10.0   .     S
V10     Er26    10.0   .     S
V10     Er15    10.0   1_655     S
V10     Er28    10.0   .     S
V10     V12    10.0   .     S
V10     V7    10.0   1_656     S
V10     Er14    10.0   .     S
V11     Er23    10.0   .     S
V11     Er21    10.0   .     S
V11     Er25    10.0   .     S
V11     Er13    10.0   .     S
V12     Er24    10.0   .     S
V12     Er22    10.0   .     S
V12     Er26    10.0   .     S
V12     Er14    10.0   .     S
Er13     Er25    10.0   .     S
Er13     V43    10.0   .     S
Er13     V45    10.0   .     S
Er13     Er26    10.0   1_455     S
Er14     Er26    10.0   .     S
Er14     V44    10.0   .     S
Er14     V46    10.0   .     S
Er14     Er25    10.0   .     S
Er15     V33    10.0   .     S
Er15     V31    10.0   1_556     S
Er15     V10    10.0   1_455     S
Er15     V7    10.0   1_556     S
Er15     Er28    10.0   1_455     S
Er15     Er27    10.0   .     S
Er16     V34    10.0   .     S
Er16     V32    10.0   1_556     S
Er16     V8    10.0   1_556     S
Er16     Er27    10.0   .     S
Er16     Er28    10.0   .     S
Er17     Er20    10.0   1_455     S
Er17     V47    10.0   .     S
Er17     V41    10.0   .     S
Er17     Er19    10.0   .     S
Er18     Er19    10.0   .     S
Er18     V48    10.0   .     S
Er18     V42    10.0   .     S
Er18     Er20    10.0   .     S
Er19     V41    10.0   .     S
Er19     V47    10.0   .     S
Er20     V5    10.0   1_655     S
Er20     V7    10.0   1_655     S
Er20     Er17    10.0   1_655     S
Er20     V42    10.0   .     S
Er20     V48    10.0   .     S
Er21     V30    10.0   .     S
Er21     V35    10.0   .     S
Er21     Er23    10.0   .     S
Er21     Er24    10.0   .     S
Er22     V29    10.0   1_655     S
Er22     V36    10.0   .     S
Er22     Er24    10.0   .     S
Er22     Er23    10.0   1_655     S
Er23     V36    10.0   1_455     S
Er23     V29    10.0   .     S
Er23     Er22    10.0   1_455     S
Er24     V35    10.0   .     S
Er24     V30    10.0   .     S
Er25     V46    10.0   .     S
Er25     V44    10.0   .     S
Er26     V45    10.0   1_655     S
Er26     V43    10.0   1_655     S
Er26     Er13    10.0   1_655     S
Er27     V8    10.0   1_556     S
Er27     V31    10.0   1_556     S
Er27     V33    10.0   .     S
Er28     V7    10.0   1_656     S
Er28     Er15    10.0   1_655     S
Er28     V32    10.0   1_556     S
Er28     V34    10.0   .     S
V29     Er22    10.0   1_455     S
V29     Er2    10.0   1_455     S
V29     V36    10.0   1_455     S
V29     V31    10.0   .     S
V30     V35    10.0   .     S
V30     V32    10.0   .     S
V31     Er15    10.0   1_554     S
V31     Er27    10.0   1_554     S
V31     Er2    10.0   1_455     S
V31     V33    10.0   1_554     S
V32     Er16    10.0   1_554     S
V32     Er28    10.0   1_554     S
V32     V34    10.0   1_554     S
V33     Er39    10.0   .     S
V33     Er37    10.0   .     S
V33     V35    10.0   .     S
V33     V31    10.0   1_556     S
V34     Er40    10.0   .     S
V34     Er38    10.0   .     S
V34     V36    10.0   .     S
V34     V32    10.0   1_556     S
V35     Er39    10.0   .     S
V35     Er37    10.0   .     S
V36     Er23    10.0   1_655     S
V36     Er40    10.0   .     S
V36     Er38    10.0   .     S
V36     V29    10.0   1_655     S
Er37     V54    10.0   1_565     S
Er37     V56    10.0   1_565     S
Er37     Er40    10.0   .     S
Er37     Er39    10.0   .     S
Er38     V53    10.0   1_665     S
Er38     V55    10.0   1_665     S
Er38     Er39    10.0   1_655     S
Er38     Er40    10.0   .     S
Er39     V55    10.0   1_565     S
Er39     V53    10.0   1_565     S
Er39     Er38    10.0   1_455     S
Er40     V56    10.0   1_565     S
Er40     V54    10.0   1_565     S
V41     Er61    10.0   .     S
V41     Er57    10.0   .     S
V41     V45    10.0   .     S
V41     V47    10.0   .     S
V42     Er62    10.0   .     S
V42     Er58    10.0   .     S
V42     V46    10.0   .     S
V42     V48    10.0   .     S
V43     Er26    10.0   1_455     S
V43     Er63    10.0   .     S
V43     Er60    10.0   1_455     S
V43     V45    10.0   .     S
V43     V48    10.0   1_456     S
V44     Er64    10.0   .     S
V44     Er59    10.0   .     S
V44     V46    10.0   .     S
V44     V47    10.0   1_556     S
V45     Er61    10.0   .     S
V45     Er57    10.0   .     S
V45     Er26    10.0   1_455     S
V46     Er62    10.0   .     S
V46     Er58    10.0   .     S
V47     Er64    10.0   1_554     S
V47     Er59    10.0   1_554     S
V47     V44    10.0   1_554     S
V48     Er63    10.0   1_654     S
V48     Er60    10.0   1_554     S
V48     V43    10.0   1_654     S
V49     Er3    10.0   1_545     S
V49     Er1    10.0   1_545     S
V49     Er59    10.0   1_554     S
V49     Er63    10.0   1_554     S
V49     V51    10.0   .     S
V49     V53    10.0   1_554     S
V50     Er4    10.0   1_545     S
V50     Er2    10.0   1_545     S
V50     Er60    10.0   1_554     S
V50     Er64    10.0   1_554     S
V50     V52    10.0   .     S
V50     V54    10.0   1_554     S
V51     Er3    10.0   1_545     S
V51     Er1    10.0   1_545     S
V51     V56    10.0   .     S
V51     Er58    10.0   .     S
V51     Er61    10.0   .     S
V52     Er4    10.0   1_545     S
V52     Er2    10.0   1_545     S
V52     V55    10.0   1_655     S
V52     Er57    10.0   1_655     S
V52     Er62    10.0   .     S
V53     Er39    10.0   1_545     S
V53     Er38    10.0   1_445     S
V53     Er59    10.0   .     S
V53     Er63    10.0   .     S
V53     V55    10.0   .     S
V53     V49    10.0   1_556     S
V54     Er40    10.0   1_545     S
V54     Er37    10.0   1_545     S
V54     Er60    10.0   .     S
V54     Er64    10.0   .     S
V54     V56    10.0   .     S
V54     V50    10.0   1_556     S
V55     Er39    10.0   1_545     S
V55     Er38    10.0   1_445     S
V55     V52    10.0   1_455     S
V55     Er57    10.0   .     S
V55     Er62    10.0   1_455     S
V56     Er40    10.0   1_545     S
V56     Er37    10.0   1_545     S
V56     Er58    10.0   .     S
V56     Er61    10.0   .     S
Er57     V52    10.0   1_455     S
Er57     Er62    10.0   1_455     S
Er57     Er61    10.0   .     S
Er58     Er61    10.0   .     S
Er58     Er62    10.0   .     S
Er59     V47    10.0   1_556     S
Er59     V49    10.0   1_556     S
Er59     Er63    10.0   .     S
Er59     Er64    10.0   .     S
Er60     V43    10.0   1_655     S
Er60     V48    10.0   1_556     S
Er60     V50    10.0   1_556     S
Er60     Er64    10.0   .     S
Er60     Er63    10.0   1_655     S
Er62     Er57    10.0   1_655     S
Er62     V55    10.0   1_655     S
Er63     V48    10.0   1_456     S
Er63     V49    10.0   1_556     S
Er63     Er60    10.0   1_455     S
Er64     V47    10.0   1_556     S
Er64     V50    10.0   1_556     S
