data_neb
_audit_creation_date              2019-12-31
_audit_creation_method            'Pymatgen'
_symmetry_space_group_name_H-M    'P1'
_symmetry_Int_Tables_number       1
loop_
_symmetry_equiv_pos_as_xyz
  x,y,z
_cell_length_a                    30.8397
_cell_length_b                    30.3336
_cell_length_c                    46.541
_cell_angle_alpha                 90.0
_cell_angle_beta                 90.0
_cell_angle_gamma                 90.0
loop_
_atom_site_label
_atom_site_type_symbol
_atom_site_fract_x
_atom_site_fract_y
_atom_site_fract_z
V1     V     0.625   0.0625   0.305
V2     V     0.625   0.5625   0.305
V3     V     0.625   0.3125   0.445
V4     V     0.625   0.8125   0.445
V5     V     0.875   0.1875   0.695
V6     V     0.875   0.6875   0.695
V7     V     0.875   0.4375   0.555
V8     V     0.875   0.9375   0.555
V9     V     0.375   0.4375   0.055
V10     V     0.375   0.9375   0.055
V11     V     0.375   0.1875   0.195
V12     V     0.375   0.6875   0.195
V13     V     0.375   0.4375   0.695
V14     V     0.375   0.9375   0.695
V15     V     0.375   0.1875   0.555
V16     V     0.375   0.6875   0.555
V17     V     0.625   0.0625   0.945
V18     V     0.625   0.5625   0.945
V19     V     0.625   0.3125   0.805
V20     V     0.625   0.8125   0.805
V21     V     0.125   0.0625   0.805
V22     V     0.125   0.5625   0.805
V23     V     0.125   0.3125   0.945
V24     V     0.125   0.8125   0.945
V25     V     0.875   0.4375   0.195
V26     V     0.875   0.9375   0.195
V27     V     0.875   0.1875   0.055
V28     V     0.875   0.6875   0.055
V29     V     0.125   0.0625   0.445
V30     V     0.125   0.5625   0.445
V31     V     0.125   0.3125   0.305
V32     V     0.125   0.8125   0.305
loop_
_geom_bond_atom_site_label_1
_geom_bond_atom_site_label_2
_geom_bond_distance
_geom_bond_site_symmetry_2
_ccdc_geom_bond_type
V1     V4    10.0   1_545     S
V1     V3    10.0   .     S
V1     V26    10.0   1_545     S
V1     V11    10.0   .     S
V2     V3    10.0   .     S
V2     V4    10.0   .     S
V2     V25    10.0   .     S
V2     V12    10.0   .     S
V3     V7    10.0   .     S
V3     V15    10.0   .     S
V4     V1    10.0   1_565     S
V4     V8    10.0   .     S
V4     V16    10.0   .     S
V5     V8    10.0   1_545     S
V5     V7    10.0   .     S
V5     V21    10.0   1_655     S
V5     V19    10.0   .     S
V6     V7    10.0   .     S
V6     V8    10.0   .     S
V6     V22    10.0   1_655     S
V6     V20    10.0   .     S
V7     V30    10.0   1_655     S
V8     V5    10.0   1_565     S
V8     V29    10.0   1_665     S
V9     V12    10.0   .     S
V9     V11    10.0   .     S
V9     V18    10.0   1_554     S
V9     V23    10.0   1_554     S
V10     V11    10.0   1_565     S
V10     V12    10.0   .     S
V10     V17    10.0   1_564     S
V10     V24    10.0   1_554     S
V11     V10    10.0   1_545     S
V11     V31    10.0   .     S
V12     V32    10.0   .     S
V13     V16    10.0   .     S
V13     V15    10.0   .     S
V13     V19    10.0   .     S
V13     V22    10.0   .     S
V14     V15    10.0   1_565     S
V14     V16    10.0   .     S
V14     V20    10.0   .     S
V14     V21    10.0   1_565     S
V15     V14    10.0   1_545     S
V15     V29    10.0   .     S
V16     V30    10.0   .     S
V17     V20    10.0   1_545     S
V17     V19    10.0   .     S
V17     V10    10.0   1_546     S
V17     V27    10.0   1_556     S
V18     V19    10.0   .     S
V18     V20    10.0   .     S
V18     V9    10.0   1_556     S
V18     V28    10.0   1_556     S
V20     V17    10.0   1_565     S
V21     V5    10.0   1_455     S
V21     V23    10.0   .     S
V21     V24    10.0   1_545     S
V21     V14    10.0   1_545     S
V22     V6    10.0   1_455     S
V22     V24    10.0   .     S
V22     V23    10.0   .     S
V23     V9    10.0   1_556     S
V23     V27    10.0   1_456     S
V24     V21    10.0   1_565     S
V24     V10    10.0   1_556     S
V24     V28    10.0   1_456     S
V25     V28    10.0   .     S
V25     V27    10.0   .     S
V25     V31    10.0   1_655     S
V26     V27    10.0   1_565     S
V26     V28    10.0   .     S
V26     V32    10.0   1_655     S
V26     V1    10.0   1_565     S
V27     V26    10.0   1_545     S
V27     V23    10.0   1_654     S
V27     V17    10.0   1_554     S
V28     V24    10.0   1_654     S
V28     V18    10.0   1_554     S
V29     V8    10.0   1_445     S
V29     V32    10.0   1_545     S
V29     V31    10.0   .     S
V30     V7    10.0   1_455     S
V30     V31    10.0   .     S
V30     V32    10.0   .     S
V31     V25    10.0   1_455     S
V32     V29    10.0   1_565     S
V32     V26    10.0   1_455     S
