data_ngc
_audit_creation_date              2019-12-31
_audit_creation_method            'Pymatgen'
_symmetry_space_group_name_H-M    'P1'
_symmetry_Int_Tables_number       1
loop_
_symmetry_equiv_pos_as_xyz
  x,y,z
_cell_length_a                    28.0914
_cell_length_b                    28.0914
_cell_length_c                    35.1747
_cell_angle_alpha                 90.0
_cell_angle_beta                 90.0
_cell_angle_gamma                 90.0
loop_
_atom_site_label
_atom_site_type_symbol
_atom_site_fract_x
_atom_site_fract_y
_atom_site_fract_z
V1     V     0.0   0.0833   0.0181
V2     V     0.0   0.4167   0.0181
V3     V     0.0   0.75   0.0181
V4     V     0.3333   0.0833   0.0181
V5     V     0.3333   0.4167   0.0181
V6     V     0.3333   0.75   0.0181
V7     V     0.6667   0.0833   0.0181
V8     V     0.6667   0.4167   0.0181
V9     V     0.6667   0.75   0.0181
V10     V     0.0   0.25   0.9819
V11     V     0.0   0.5833   0.9819
V12     V     0.0   0.9167   0.9819
V13     V     0.3333   0.25   0.9819
V14     V     0.3333   0.5833   0.9819
V15     V     0.3333   0.9167   0.9819
V16     V     0.6667   0.25   0.9819
V17     V     0.6667   0.5833   0.9819
V18     V     0.6667   0.9167   0.9819
V19     V     0.0   0.25   0.2681
V20     V     0.0   0.5833   0.2681
V21     V     0.0   0.9167   0.2681
V22     V     0.3333   0.25   0.2681
V23     V     0.3333   0.5833   0.2681
V24     V     0.3333   0.9167   0.2681
V25     V     0.6667   0.25   0.2681
V26     V     0.6667   0.5833   0.2681
V27     V     0.6667   0.9167   0.2681
V28     V     0.1667   0.25   0.2319
V29     V     0.1667   0.5833   0.2319
V30     V     0.1667   0.9167   0.2319
V31     V     0.5   0.25   0.2319
V32     V     0.5   0.5833   0.2319
V33     V     0.5   0.9167   0.2319
V34     V     0.8333   0.25   0.2319
V35     V     0.8333   0.5833   0.2319
V36     V     0.8333   0.9167   0.2319
V37     V     0.1667   0.25   0.5181
V38     V     0.1667   0.5833   0.5181
V39     V     0.1667   0.9167   0.5181
V40     V     0.5   0.25   0.5181
V41     V     0.5   0.5833   0.5181
V42     V     0.5   0.9167   0.5181
V43     V     0.8333   0.25   0.5181
V44     V     0.8333   0.5833   0.5181
V45     V     0.8333   0.9167   0.5181
V46     V     0.1667   0.0833   0.4819
V47     V     0.1667   0.4167   0.4819
V48     V     0.1667   0.75   0.4819
V49     V     0.5   0.0833   0.4819
V50     V     0.5   0.4167   0.4819
V51     V     0.5   0.75   0.4819
V52     V     0.8333   0.0833   0.4819
V53     V     0.8333   0.4167   0.4819
V54     V     0.8333   0.75   0.4819
V55     V     0.1667   0.0833   0.7681
V56     V     0.1667   0.4167   0.7681
V57     V     0.1667   0.75   0.7681
V58     V     0.5   0.0833   0.7681
V59     V     0.5   0.4167   0.7681
V60     V     0.5   0.75   0.7681
V61     V     0.8333   0.0833   0.7681
V62     V     0.8333   0.4167   0.7681
V63     V     0.8333   0.75   0.7681
V64     V     0.0   0.0833   0.7319
V65     V     0.0   0.4167   0.7319
V66     V     0.0   0.75   0.7319
V67     V     0.3333   0.0833   0.7319
V68     V     0.3333   0.4167   0.7319
V69     V     0.3333   0.75   0.7319
V70     V     0.6667   0.0833   0.7319
V71     V     0.6667   0.4167   0.7319
V72     V     0.6667   0.75   0.7319
loop_
_geom_bond_atom_site_label_1
_geom_bond_atom_site_label_2
_geom_bond_distance
_geom_bond_site_symmetry_2
_ccdc_geom_bond_type
V1     V64    10.065   1_554     S
V1     V61    9.962   1_454     S
V1     V55    9.962   1_554     S
V1     V21    9.962   1_545     S
V1     V19    9.962   .     S
V1     V30    10.021   1_545     S
V1     V36    10.021   1_445     S
V1     V34    10.021   1_455     S
V1     V28    10.021   .     S
V2     V65    10.065   1_554     S
V2     V62    9.962   1_454     S
V2     V56    9.962   1_554     S
V2     V19    9.962   .     S
V2     V20    9.962   .     S
V2     V28    10.021   .     S
V2     V34    10.021   1_455     S
V2     V35    10.021   1_455     S
V2     V29    10.021   .     S
V3     V66    10.065   1_554     S
V3     V63    9.962   1_454     S
V3     V57    9.962   1_554     S
V3     V20    9.962   .     S
V3     V21    9.962   .     S
V3     V29    10.021   .     S
V3     V35    10.021   1_455     S
V3     V36    10.021   1_455     S
V3     V30    10.021   .     S
V4     V67    10.065   1_554     S
V4     V55    9.962   1_554     S
V4     V58    9.962   1_554     S
V4     V24    9.962   1_545     S
V4     V22    9.962   .     S
V4     V33    10.021   1_545     S
V4     V30    10.021   1_545     S
V4     V28    10.021   .     S
V4     V31    10.021   .     S
V5     V68    10.065   1_554     S
V5     V56    9.962   1_554     S
V5     V59    9.962   1_554     S
V5     V22    9.962   .     S
V5     V23    9.962   .     S
V5     V31    10.021   .     S
V5     V28    10.021   .     S
V5     V29    10.021   .     S
V5     V32    10.021   .     S
V6     V69    10.065   1_554     S
V6     V57    9.962   1_554     S
V6     V60    9.962   1_554     S
V6     V23    9.962   .     S
V6     V24    9.962   .     S
V6     V32    10.021   .     S
V6     V29    10.021   .     S
V6     V30    10.021   .     S
V6     V33    10.021   .     S
V7     V70    10.065   1_554     S
V7     V58    9.962   1_554     S
V7     V61    9.962   1_554     S
V7     V27    9.962   1_545     S
V7     V25    9.962   .     S
V7     V36    10.021   1_545     S
V7     V33    10.021   1_545     S
V7     V31    10.021   .     S
V7     V34    10.021   .     S
V8     V71    10.065   1_554     S
V8     V59    9.962   1_554     S
V8     V62    9.962   1_554     S
V8     V25    9.962   .     S
V8     V26    9.962   .     S
V8     V34    10.021   .     S
V8     V31    10.021   .     S
V8     V32    10.021   .     S
V8     V35    10.021   .     S
V9     V72    10.065   1_554     S
V9     V60    9.962   1_554     S
V9     V63    9.962   1_554     S
V9     V26    9.962   .     S
V9     V27    9.962   .     S
V9     V35    10.021   .     S
V9     V32    10.021   .     S
V9     V33    10.021   .     S
V9     V36    10.021   .     S
V10     V19    10.065   1_556     S
V10     V65    9.962   .     S
V10     V64    9.962   .     S
V10     V28    9.962   1_556     S
V10     V34    9.962   1_456     S
V10     V62    10.021   1_455     S
V10     V61    10.021   1_455     S
V10     V56    10.021   .     S
V10     V55    10.021   .     S
V11     V20    10.065   1_556     S
V11     V66    9.962   .     S
V11     V65    9.962   .     S
V11     V29    9.962   1_556     S
V11     V35    9.962   1_456     S
V11     V63    10.021   1_455     S
V11     V62    10.021   1_455     S
V11     V57    10.021   .     S
V11     V56    10.021   .     S
V12     V21    10.065   1_556     S
V12     V64    9.962   1_565     S
V12     V66    9.962   .     S
V12     V30    9.962   1_556     S
V12     V36    9.962   1_456     S
V12     V61    10.021   1_465     S
V12     V63    10.021   1_455     S
V12     V55    10.021   1_565     S
V12     V57    10.021   .     S
V13     V22    10.065   1_556     S
V13     V68    9.962   .     S
V13     V67    9.962   .     S
V13     V31    9.962   1_556     S
V13     V28    9.962   1_556     S
V13     V56    10.021   .     S
V13     V55    10.021   .     S
V13     V59    10.021   .     S
V13     V58    10.021   .     S
V14     V23    10.065   1_556     S
V14     V69    9.962   .     S
V14     V68    9.962   .     S
V14     V32    9.962   1_556     S
V14     V29    9.962   1_556     S
V14     V57    10.021   .     S
V14     V56    10.021   .     S
V14     V60    10.021   .     S
V14     V59    10.021   .     S
V15     V24    10.065   1_556     S
V15     V67    9.962   1_565     S
V15     V69    9.962   .     S
V15     V33    9.962   1_556     S
V15     V30    9.962   1_556     S
V15     V55    10.021   1_565     S
V15     V57    10.021   .     S
V15     V58    10.021   1_565     S
V15     V60    10.021   .     S
V16     V25    10.065   1_556     S
V16     V71    9.962   .     S
V16     V70    9.962   .     S
V16     V34    9.962   1_556     S
V16     V31    9.962   1_556     S
V16     V59    10.021   .     S
V16     V58    10.021   .     S
V16     V62    10.021   .     S
V16     V61    10.021   .     S
V17     V26    10.065   1_556     S
V17     V72    9.962   .     S
V17     V71    9.962   .     S
V17     V35    9.962   1_556     S
V17     V32    9.962   1_556     S
V17     V60    10.021   .     S
V17     V59    10.021   .     S
V17     V63    10.021   .     S
V17     V62    10.021   .     S
V18     V27    10.065   1_556     S
V18     V70    9.962   1_565     S
V18     V72    9.962   .     S
V18     V36    9.962   1_556     S
V18     V33    9.962   1_556     S
V18     V58    10.021   1_565     S
V18     V60    10.021   .     S
V18     V61    10.021   1_565     S
V18     V63    10.021   .     S
V19     V10    10.065   1_554     S
V19     V43    9.962   1_455     S
V19     V37    9.962   .     S
V19     V53    10.021   1_455     S
V19     V46    10.021   .     S
V19     V47    10.021   .     S
V19     V52    10.021   1_455     S
V20     V11    10.065   1_554     S
V20     V44    9.962   1_455     S
V20     V38    9.962   .     S
V20     V54    10.021   1_455     S
V20     V47    10.021   .     S
V20     V48    10.021   .     S
V20     V53    10.021   1_455     S
V21     V12    10.065   1_554     S
V21     V1    9.962   1_565     S
V21     V45    9.962   1_455     S
V21     V39    9.962   .     S
V21     V52    10.021   1_465     S
V21     V48    10.021   .     S
V21     V46    10.021   1_565     S
V21     V54    10.021   1_455     S
V22     V13    10.065   1_554     S
V22     V37    9.962   .     S
V22     V40    9.962   .     S
V22     V47    10.021   .     S
V22     V49    10.021   .     S
V22     V50    10.021   .     S
V22     V46    10.021   .     S
V23     V14    10.065   1_554     S
V23     V38    9.962   .     S
V23     V41    9.962   .     S
V23     V48    10.021   .     S
V23     V50    10.021   .     S
V23     V51    10.021   .     S
V23     V47    10.021   .     S
V24     V15    10.065   1_554     S
V24     V4    9.962   1_565     S
V24     V39    9.962   .     S
V24     V42    9.962   .     S
V24     V46    10.021   1_565     S
V24     V51    10.021   .     S
V24     V49    10.021   1_565     S
V24     V48    10.021   .     S
V25     V16    10.065   1_554     S
V25     V40    9.962   .     S
V25     V43    9.962   .     S
V25     V50    10.021   .     S
V25     V52    10.021   .     S
V25     V53    10.021   .     S
V25     V49    10.021   .     S
V26     V17    10.065   1_554     S
V26     V41    9.962   .     S
V26     V44    9.962   .     S
V26     V51    10.021   .     S
V26     V53    10.021   .     S
V26     V54    10.021   .     S
V26     V50    10.021   .     S
V27     V18    10.065   1_554     S
V27     V7    9.962   1_565     S
V27     V42    9.962   .     S
V27     V45    9.962   .     S
V27     V49    10.021   1_565     S
V27     V54    10.021   .     S
V27     V52    10.021   1_565     S
V27     V51    10.021   .     S
V28     V37    10.065   .     S
V28     V10    9.962   1_554     S
V28     V13    9.962   1_554     S
V28     V46    9.962   .     S
V28     V47    9.962   .     S
V29     V38    10.065   .     S
V29     V11    9.962   1_554     S
V29     V14    9.962   1_554     S
V29     V47    9.962   .     S
V29     V48    9.962   .     S
V30     V39    10.065   .     S
V30     V12    9.962   1_554     S
V30     V15    9.962   1_554     S
V30     V48    9.962   .     S
V30     V46    9.962   1_565     S
V30     V1    10.021   1_565     S
V30     V4    10.021   1_565     S
V31     V40    10.065   .     S
V31     V13    9.962   1_554     S
V31     V16    9.962   1_554     S
V31     V49    9.962   .     S
V31     V50    9.962   .     S
V32     V41    10.065   .     S
V32     V14    9.962   1_554     S
V32     V17    9.962   1_554     S
V32     V50    9.962   .     S
V32     V51    9.962   .     S
V33     V42    10.065   .     S
V33     V15    9.962   1_554     S
V33     V18    9.962   1_554     S
V33     V51    9.962   .     S
V33     V49    9.962   1_565     S
V33     V4    10.021   1_565     S
V33     V7    10.021   1_565     S
V34     V43    10.065   .     S
V34     V16    9.962   1_554     S
V34     V10    9.962   1_654     S
V34     V52    9.962   .     S
V34     V53    9.962   .     S
V34     V2    10.021   1_655     S
V34     V1    10.021   1_655     S
V35     V44    10.065   .     S
V35     V17    9.962   1_554     S
V35     V11    9.962   1_654     S
V35     V53    9.962   .     S
V35     V54    9.962   .     S
V35     V3    10.021   1_655     S
V35     V2    10.021   1_655     S
V36     V45    10.065   .     S
V36     V18    9.962   1_554     S
V36     V12    9.962   1_654     S
V36     V54    9.962   .     S
V36     V52    9.962   1_565     S
V36     V7    10.021   1_565     S
V36     V1    10.021   1_665     S
V36     V3    10.021   1_655     S
V37     V55    9.962   .     S
V37     V56    9.962   .     S
V37     V68    10.021   .     S
V37     V67    10.021   .     S
V37     V65    10.021   .     S
V37     V64    10.021   .     S
V38     V56    9.962   .     S
V38     V57    9.962   .     S
V38     V69    10.021   .     S
V38     V68    10.021   .     S
V38     V66    10.021   .     S
V38     V65    10.021   .     S
V39     V57    9.962   .     S
V39     V55    9.962   1_565     S
V39     V67    10.021   1_565     S
V39     V69    10.021   .     S
V39     V64    10.021   1_565     S
V39     V66    10.021   .     S
V40     V58    9.962   .     S
V40     V59    9.962   .     S
V40     V71    10.021   .     S
V40     V70    10.021   .     S
V40     V68    10.021   .     S
V40     V67    10.021   .     S
V41     V59    9.962   .     S
V41     V60    9.962   .     S
V41     V72    10.021   .     S
V41     V71    10.021   .     S
V41     V69    10.021   .     S
V41     V68    10.021   .     S
V42     V60    9.962   .     S
V42     V58    9.962   1_565     S
V42     V70    10.021   1_565     S
V42     V72    10.021   .     S
V42     V67    10.021   1_565     S
V42     V69    10.021   .     S
V43     V19    9.962   1_655     S
V43     V61    9.962   .     S
V43     V62    9.962   .     S
V43     V65    10.021   1_655     S
V43     V64    10.021   1_655     S
V43     V71    10.021   .     S
V43     V70    10.021   .     S
V44     V20    9.962   1_655     S
V44     V62    9.962   .     S
V44     V63    9.962   .     S
V44     V66    10.021   1_655     S
V44     V65    10.021   1_655     S
V44     V72    10.021   .     S
V44     V71    10.021   .     S
V45     V21    9.962   1_655     S
V45     V63    9.962   .     S
V45     V61    9.962   1_565     S
V45     V64    10.021   1_665     S
V45     V66    10.021   1_655     S
V45     V70    10.021   1_565     S
V45     V72    10.021   .     S
V46     V55    10.065   .     S
V46     V30    9.962   1_545     S
V46     V67    9.962   .     S
V46     V64    9.962   .     S
V46     V24    10.021   1_545     S
V46     V21    10.021   1_545     S
V47     V56    10.065   .     S
V47     V68    9.962   .     S
V47     V65    9.962   .     S
V48     V57    10.065   .     S
V48     V69    9.962   .     S
V48     V66    9.962   .     S
V49     V58    10.065   .     S
V49     V33    9.962   1_545     S
V49     V70    9.962   .     S
V49     V67    9.962   .     S
V49     V27    10.021   1_545     S
V49     V24    10.021   1_545     S
V50     V59    10.065   .     S
V50     V71    9.962   .     S
V50     V68    9.962   .     S
V51     V60    10.065   .     S
V51     V72    9.962   .     S
V51     V69    9.962   .     S
V52     V61    10.065   .     S
V52     V36    9.962   1_545     S
V52     V64    9.962   1_655     S
V52     V70    9.962   .     S
V52     V21    10.021   1_645     S
V52     V27    10.021   1_545     S
V52     V19    10.021   1_655     S
V53     V62    10.065   .     S
V53     V65    9.962   1_655     S
V53     V71    9.962   .     S
V53     V19    10.021   1_655     S
V53     V20    10.021   1_655     S
V54     V63    10.065   .     S
V54     V66    9.962   1_655     S
V54     V72    9.962   .     S
V54     V20    10.021   1_655     S
V54     V21    10.021   1_655     S
V55     V4    9.962   1_556     S
V55     V1    9.962   1_556     S
V55     V39    9.962   1_545     S
V55     V15    10.021   1_545     S
V55     V12    10.021   1_545     S
V56     V5    9.962   1_556     S
V56     V2    9.962   1_556     S
V57     V6    9.962   1_556     S
V57     V3    9.962   1_556     S
V58     V7    9.962   1_556     S
V58     V4    9.962   1_556     S
V58     V42    9.962   1_545     S
V58     V18    10.021   1_545     S
V58     V15    10.021   1_545     S
V59     V8    9.962   1_556     S
V59     V5    9.962   1_556     S
V60     V9    9.962   1_556     S
V60     V6    9.962   1_556     S
V61     V1    9.962   1_656     S
V61     V7    9.962   1_556     S
V61     V45    9.962   1_545     S
V61     V12    10.021   1_645     S
V61     V10    10.021   1_655     S
V61     V18    10.021   1_545     S
V62     V2    9.962   1_656     S
V62     V8    9.962   1_556     S
V62     V10    10.021   1_655     S
V62     V11    10.021   1_655     S
V63     V3    9.962   1_656     S
V63     V9    9.962   1_556     S
V63     V11    10.021   1_655     S
V63     V12    10.021   1_655     S
V64     V1    10.065   1_556     S
V64     V12    9.962   1_545     S
V64     V52    9.962   1_455     S
V64     V45    10.021   1_445     S
V64     V43    10.021   1_455     S
V64     V39    10.021   1_545     S
V65     V2    10.065   1_556     S
V65     V53    9.962   1_455     S
V65     V43    10.021   1_455     S
V65     V44    10.021   1_455     S
V66     V3    10.065   1_556     S
V66     V54    9.962   1_455     S
V66     V44    10.021   1_455     S
V66     V45    10.021   1_455     S
V67     V4    10.065   1_556     S
V67     V15    9.962   1_545     S
V67     V39    10.021   1_545     S
V67     V42    10.021   1_545     S
V68     V5    10.065   1_556     S
V69     V6    10.065   1_556     S
V70     V7    10.065   1_556     S
V70     V18    9.962   1_545     S
V70     V42    10.021   1_545     S
V70     V45    10.021   1_545     S
V71     V8    10.065   1_556     S
V72     V9    10.065   1_556     S
