data_nia-e
_audit_creation_date              2019-12-31
_audit_creation_method            'Pymatgen'
_symmetry_space_group_name_H-M    'P1'
_symmetry_Int_Tables_number       1
loop_
_symmetry_equiv_pos_as_xyz
  x,y,z
_cell_length_a                    40.0
_cell_length_b                    40.0
_cell_length_c                    36.3298
_cell_angle_alpha                 90.0
_cell_angle_beta                 90.0
_cell_angle_gamma                 120.0
loop_
_atom_site_label
_atom_site_type_symbol
_atom_site_fract_x
_atom_site_fract_y
_atom_site_fract_z
V1     V     0.4167   0.0833   0.8876
V2     V     0.4167   0.5833   0.8876
V3     V     0.9167   0.0833   0.8876
V4     V     0.9167   0.5833   0.8876
V5     V     0.0833   0.4167   0.1124
V6     V     0.0833   0.9167   0.1124
V7     V     0.5833   0.4167   0.1124
V8     V     0.5833   0.9167   0.1124
V9     V     0.0833   0.1667   0.1124
V10     V     0.0833   0.6667   0.1124
V11     V     0.5833   0.1667   0.1124
V12     V     0.5833   0.6667   0.1124
V13     V     0.3333   0.4167   0.1124
V14     V     0.3333   0.9167   0.1124
V15     V     0.8333   0.4167   0.1124
V16     V     0.8333   0.9167   0.1124
V17     V     0.1667   0.0833   0.8876
V18     V     0.1667   0.5833   0.8876
V19     V     0.6667   0.0833   0.8876
V20     V     0.6667   0.5833   0.8876
V21     V     0.4167   0.3333   0.8876
V22     V     0.4167   0.8333   0.8876
V23     V     0.9167   0.3333   0.8876
V24     V     0.9167   0.8333   0.8876
V25     V     0.1667   0.0833   0.6124
V26     V     0.1667   0.5833   0.6124
V27     V     0.6667   0.0833   0.6124
V28     V     0.6667   0.5833   0.6124
V29     V     0.4167   0.0833   0.6124
V30     V     0.4167   0.5833   0.6124
V31     V     0.9167   0.0833   0.6124
V32     V     0.9167   0.5833   0.6124
V33     V     0.4167   0.3333   0.6124
V34     V     0.4167   0.8333   0.6124
V35     V     0.9167   0.3333   0.6124
V36     V     0.9167   0.8333   0.6124
V37     V     0.3333   0.4167   0.3876
V38     V     0.3333   0.9167   0.3876
V39     V     0.8333   0.4167   0.3876
V40     V     0.8333   0.9167   0.3876
V41     V     0.0833   0.4167   0.3876
V42     V     0.0833   0.9167   0.3876
V43     V     0.5833   0.4167   0.3876
V44     V     0.5833   0.9167   0.3876
V45     V     0.0833   0.1667   0.3876
V46     V     0.0833   0.6667   0.3876
V47     V     0.5833   0.1667   0.3876
V48     V     0.5833   0.6667   0.3876
loop_
_geom_bond_atom_site_label_1
_geom_bond_atom_site_label_2
_geom_bond_distance
_geom_bond_site_symmetry_2
_ccdc_geom_bond_type
V1     V22    10.0   1_545     S
V1     V21    10.0   .     S
V1     V17    10.0   .     S
V1     V19    10.0   .     S
V1     V11    10.0   1_556     S
V1     V14    10.0   1_546     S
V1     V29    10.0   .     S
V2     V21    10.0   .     S
V2     V22    10.0   .     S
V2     V18    10.0   .     S
V2     V20    10.0   .     S
V2     V12    10.0   1_556     S
V2     V13    10.0   1_556     S
V2     V30    10.0   .     S
V3     V24    10.0   1_545     S
V3     V23    10.0   .     S
V3     V19    10.0   .     S
V3     V17    10.0   1_655     S
V3     V9    10.0   1_656     S
V3     V16    10.0   1_546     S
V3     V31    10.0   .     S
V4     V23    10.0   .     S
V4     V24    10.0   .     S
V4     V20    10.0   .     S
V4     V18    10.0   1_655     S
V4     V10    10.0   1_656     S
V4     V15    10.0   1_556     S
V4     V32    10.0   .     S
V5     V15    10.0   1_455     S
V5     V13    10.0   .     S
V5     V9    10.0   .     S
V5     V10    10.0   .     S
V5     V23    10.0   1_454     S
V5     V18    10.0   1_554     S
V5     V41    10.0   .     S
V6     V16    10.0   1_455     S
V6     V14    10.0   .     S
V6     V10    10.0   .     S
V6     V9    10.0   1_565     S
V6     V24    10.0   1_454     S
V6     V17    10.0   1_564     S
V6     V42    10.0   .     S
V7     V13    10.0   .     S
V7     V15    10.0   .     S
V7     V11    10.0   .     S
V7     V12    10.0   .     S
V7     V21    10.0   1_554     S
V7     V20    10.0   1_554     S
V7     V43    10.0   .     S
V8     V14    10.0   .     S
V8     V16    10.0   .     S
V8     V12    10.0   .     S
V8     V11    10.0   1_565     S
V8     V22    10.0   1_554     S
V8     V19    10.0   1_564     S
V8     V44    10.0   .     S
V9     V13    10.0   .     S
V9     V3    10.0   1_454     S
V9     V6    10.0   1_545     S
V9     V16    10.0   1_445     S
V9     V17    10.0   1_554     S
V9     V45    10.0   .     S
V10     V14    10.0   .     S
V10     V4    10.0   1_454     S
V10     V15    10.0   1_455     S
V10     V18    10.0   1_554     S
V10     V46    10.0   .     S
V11     V15    10.0   .     S
V11     V1    10.0   1_554     S
V11     V8    10.0   1_545     S
V11     V14    10.0   1_545     S
V11     V19    10.0   1_554     S
V11     V47    10.0   .     S
V12     V16    10.0   .     S
V12     V2    10.0   1_554     S
V12     V13    10.0   .     S
V12     V20    10.0   1_554     S
V12     V48    10.0   .     S
V13     V21    10.0   1_554     S
V13     V2    10.0   1_554     S
V13     V37    10.0   .     S
V14     V22    10.0   1_554     S
V14     V1    10.0   1_564     S
V14     V11    10.0   1_565     S
V14     V38    10.0   .     S
V15     V23    10.0   1_554     S
V15     V5    10.0   1_655     S
V15     V4    10.0   1_554     S
V15     V10    10.0   1_655     S
V15     V39    10.0   .     S
V16     V24    10.0   1_554     S
V16     V6    10.0   1_655     S
V16     V3    10.0   1_564     S
V16     V9    10.0   1_665     S
V16     V40    10.0   .     S
V17     V21    10.0   .     S
V17     V3    10.0   1_455     S
V17     V24    10.0   1_445     S
V17     V9    10.0   1_556     S
V17     V6    10.0   1_546     S
V17     V25    10.0   .     S
V18     V22    10.0   .     S
V18     V4    10.0   1_455     S
V18     V23    10.0   1_455     S
V18     V10    10.0   1_556     S
V18     V5    10.0   1_556     S
V18     V26    10.0   .     S
V19     V23    10.0   .     S
V19     V22    10.0   1_545     S
V19     V11    10.0   1_556     S
V19     V8    10.0   1_546     S
V19     V27    10.0   .     S
V20     V24    10.0   .     S
V20     V21    10.0   .     S
V20     V12    10.0   1_556     S
V20     V7    10.0   1_556     S
V20     V28    10.0   .     S
V21     V13    10.0   1_556     S
V21     V7    10.0   1_556     S
V21     V33    10.0   .     S
V22     V14    10.0   1_556     S
V22     V1    10.0   1_565     S
V22     V19    10.0   1_565     S
V22     V8    10.0   1_556     S
V22     V34    10.0   .     S
V23     V15    10.0   1_556     S
V23     V18    10.0   1_655     S
V23     V5    10.0   1_656     S
V23     V35    10.0   .     S
V24     V16    10.0   1_556     S
V24     V3    10.0   1_565     S
V24     V17    10.0   1_665     S
V24     V6    10.0   1_656     S
V24     V36    10.0   .     S
V25     V33    10.0   .     S
V25     V29    10.0   .     S
V25     V36    10.0   1_445     S
V25     V31    10.0   1_455     S
V25     V42    10.0   1_545     S
V25     V45    10.0   .     S
V26     V34    10.0   .     S
V26     V30    10.0   .     S
V26     V35    10.0   1_455     S
V26     V32    10.0   1_455     S
V26     V41    10.0   .     S
V26     V46    10.0   .     S
V27     V35    10.0   .     S
V27     V31    10.0   .     S
V27     V34    10.0   1_545     S
V27     V29    10.0   .     S
V27     V44    10.0   1_545     S
V27     V47    10.0   .     S
V28     V36    10.0   .     S
V28     V32    10.0   .     S
V28     V33    10.0   .     S
V28     V30    10.0   .     S
V28     V43    10.0   .     S
V28     V48    10.0   .     S
V29     V33    10.0   .     S
V29     V34    10.0   1_545     S
V29     V38    10.0   1_545     S
V29     V47    10.0   .     S
V30     V34    10.0   .     S
V30     V33    10.0   .     S
V30     V37    10.0   .     S
V30     V48    10.0   .     S
V31     V35    10.0   .     S
V31     V25    10.0   1_655     S
V31     V36    10.0   1_545     S
V31     V40    10.0   1_545     S
V31     V45    10.0   1_655     S
V32     V36    10.0   .     S
V32     V26    10.0   1_655     S
V32     V35    10.0   .     S
V32     V39    10.0   .     S
V32     V46    10.0   1_655     S
V33     V37    10.0   .     S
V33     V43    10.0   .     S
V34     V27    10.0   1_565     S
V34     V29    10.0   1_565     S
V34     V38    10.0   .     S
V34     V44    10.0   .     S
V35     V26    10.0   1_655     S
V35     V39    10.0   .     S
V35     V41    10.0   1_655     S
V36     V25    10.0   1_665     S
V36     V31    10.0   1_565     S
V36     V40    10.0   .     S
V36     V42    10.0   1_655     S
V37     V41    10.0   .     S
V37     V45    10.0   .     S
V37     V48    10.0   .     S
V37     V43    10.0   .     S
V38     V42    10.0   .     S
V38     V46    10.0   .     S
V38     V29    10.0   1_565     S
V38     V47    10.0   1_565     S
V38     V44    10.0   .     S
V39     V43    10.0   .     S
V39     V47    10.0   .     S
V39     V46    10.0   1_655     S
V39     V41    10.0   1_655     S
V40     V44    10.0   .     S
V40     V48    10.0   .     S
V40     V31    10.0   1_565     S
V40     V45    10.0   1_665     S
V40     V42    10.0   1_655     S
V41     V45    10.0   .     S
V41     V39    10.0   1_455     S
V41     V46    10.0   .     S
V41     V35    10.0   1_455     S
V42     V46    10.0   .     S
V42     V40    10.0   1_455     S
V42     V45    10.0   1_565     S
V42     V25    10.0   1_565     S
V42     V36    10.0   1_455     S
V43     V47    10.0   .     S
V43     V48    10.0   .     S
V44     V48    10.0   .     S
V44     V47    10.0   1_565     S
V44     V27    10.0   1_565     S
V45     V40    10.0   1_445     S
V45     V42    10.0   1_545     S
V45     V31    10.0   1_455     S
V46     V39    10.0   1_455     S
V46     V32    10.0   1_455     S
V47     V38    10.0   1_545     S
V47     V44    10.0   1_545     S
