data_nia-d
_audit_creation_date              2019-12-31
_audit_creation_method            'Pymatgen'
_symmetry_space_group_name_H-M    'P1'
_symmetry_Int_Tables_number       1
loop_
_symmetry_equiv_pos_as_xyz
  x,y,z
_cell_length_a                    34.1354
_cell_length_b                    34.1354
_cell_length_c                    24.162
_cell_angle_alpha                 90.0
_cell_angle_beta                 90.0
_cell_angle_gamma                 120.0
loop_
_atom_site_label
_atom_site_type_symbol
_atom_site_fract_x
_atom_site_fract_y
_atom_site_fract_z
V1     V     0.3333   0.1667   0.05
V2     V     0.3333   0.1667   0.25
V3     V     0.3333   0.1667   0.45
V4     V     0.3333   0.1667   0.65
V5     V     0.3333   0.1667   0.85
V6     V     0.3333   0.6667   0.05
V7     V     0.3333   0.6667   0.25
V8     V     0.3333   0.6667   0.45
V9     V     0.3333   0.6667   0.65
V10     V     0.3333   0.6667   0.85
V11     V     0.8333   0.1667   0.05
V12     V     0.8333   0.1667   0.25
V13     V     0.8333   0.1667   0.45
V14     V     0.8333   0.1667   0.65
V15     V     0.8333   0.1667   0.85
V16     V     0.8333   0.6667   0.05
V17     V     0.8333   0.6667   0.25
V18     V     0.8333   0.6667   0.45
V19     V     0.8333   0.6667   0.65
V20     V     0.8333   0.6667   0.85
V21     V     0.1667   0.3333   0.15
V22     V     0.1667   0.3333   0.35
V23     V     0.1667   0.3333   0.55
V24     V     0.1667   0.3333   0.75
V25     V     0.1667   0.3333   0.95
V26     V     0.1667   0.8333   0.15
V27     V     0.1667   0.8333   0.35
V28     V     0.1667   0.8333   0.55
V29     V     0.1667   0.8333   0.75
V30     V     0.1667   0.8333   0.95
V31     V     0.6667   0.3333   0.15
V32     V     0.6667   0.3333   0.35
V33     V     0.6667   0.3333   0.55
V34     V     0.6667   0.3333   0.75
V35     V     0.6667   0.3333   0.95
V36     V     0.6667   0.8333   0.15
V37     V     0.6667   0.8333   0.35
V38     V     0.6667   0.8333   0.55
V39     V     0.6667   0.8333   0.75
V40     V     0.6667   0.8333   0.95
Er41     Er     0.0   0.0   0.05
Er42     Er     0.0   0.0   0.25
Er43     Er     0.0   0.0   0.45
Er44     Er     0.0   0.0   0.65
Er45     Er     0.0   0.0   0.85
Er46     Er     0.0   0.5   0.05
Er47     Er     0.0   0.5   0.25
Er48     Er     0.0   0.5   0.45
Er49     Er     0.0   0.5   0.65
Er50     Er     0.0   0.5   0.85
Er51     Er     0.5   0.0   0.05
Er52     Er     0.5   0.0   0.25
Er53     Er     0.5   0.0   0.45
Er54     Er     0.5   0.0   0.65
Er55     Er     0.5   0.0   0.85
Er56     Er     0.5   0.5   0.05
Er57     Er     0.5   0.5   0.25
Er58     Er     0.5   0.5   0.45
Er59     Er     0.5   0.5   0.65
Er60     Er     0.5   0.5   0.85
Er61     Er     0.0   0.0   0.15
Er62     Er     0.0   0.0   0.35
Er63     Er     0.0   0.0   0.55
Er64     Er     0.0   0.0   0.75
Er65     Er     0.0   0.0   0.95
Er66     Er     0.0   0.5   0.15
Er67     Er     0.0   0.5   0.35
Er68     Er     0.0   0.5   0.55
Er69     Er     0.0   0.5   0.75
Er70     Er     0.0   0.5   0.95
Er71     Er     0.5   0.0   0.15
Er72     Er     0.5   0.0   0.35
Er73     Er     0.5   0.0   0.55
Er74     Er     0.5   0.0   0.75
Er75     Er     0.5   0.0   0.95
Er76     Er     0.5   0.5   0.15
Er77     Er     0.5   0.5   0.35
Er78     Er     0.5   0.5   0.55
Er79     Er     0.5   0.5   0.75
Er80     Er     0.5   0.5   0.95
loop_
_geom_bond_atom_site_label_1
_geom_bond_atom_site_label_2
_geom_bond_distance
_geom_bond_site_symmetry_2
_ccdc_geom_bond_type
V1     V35    10.146   1_554     S
V1     V31    10.146   .     S
V1     V30    10.146   1_544     S
V1     V26    10.146   1_545     S
V1     V21    10.146   .     S
V1     V25    10.146   1_554     S
V1     Er41    9.854   .     S
V1     Er51    9.854   .     S
V1     Er56    9.854   .     S
V2     V31    10.146   .     S
V2     V32    10.146   .     S
V2     V26    10.146   1_545     S
V2     V27    10.146   1_545     S
V2     V22    10.146   .     S
V2     V21    10.146   .     S
V2     Er42    9.854   .     S
V2     Er52    9.854   .     S
V2     Er57    9.854   .     S
V3     V32    10.146   .     S
V3     V33    10.146   .     S
V3     V27    10.146   1_545     S
V3     V28    10.146   1_545     S
V3     V23    10.146   .     S
V3     V22    10.146   .     S
V3     Er43    9.854   .     S
V3     Er53    9.854   .     S
V3     Er58    9.854   .     S
V4     V33    10.146   .     S
V4     V34    10.146   .     S
V4     V28    10.146   1_545     S
V4     V29    10.146   1_545     S
V4     V24    10.146   .     S
V4     V23    10.146   .     S
V4     Er44    9.854   .     S
V4     Er54    9.854   .     S
V4     Er59    9.854   .     S
V5     V34    10.146   .     S
V5     V35    10.146   .     S
V5     V29    10.146   1_545     S
V5     V30    10.146   1_545     S
V5     V25    10.146   .     S
V5     V24    10.146   .     S
V5     Er45    9.854   .     S
V5     Er55    9.854   .     S
V5     Er60    9.854   .     S
V6     V40    10.146   1_554     S
V6     V36    10.146   .     S
V6     V25    10.146   1_554     S
V6     V21    10.146   .     S
V6     V26    10.146   .     S
V6     V30    10.146   1_554     S
V6     Er46    9.854   .     S
V6     Er56    9.854   .     S
V6     Er51    9.854   1_565     S
V7     V36    10.146   .     S
V7     V37    10.146   .     S
V7     V21    10.146   .     S
V7     V22    10.146   .     S
V7     V27    10.146   .     S
V7     V26    10.146   .     S
V7     Er47    9.854   .     S
V7     Er57    9.854   .     S
V7     Er52    9.854   1_565     S
V8     V37    10.146   .     S
V8     V38    10.146   .     S
V8     V22    10.146   .     S
V8     V23    10.146   .     S
V8     V28    10.146   .     S
V8     V27    10.146   .     S
V8     Er48    9.854   .     S
V8     Er58    9.854   .     S
V8     Er53    9.854   1_565     S
V9     V38    10.146   .     S
V9     V39    10.146   .     S
V9     V23    10.146   .     S
V9     V24    10.146   .     S
V9     V29    10.146   .     S
V9     V28    10.146   .     S
V9     Er49    9.854   .     S
V9     Er59    9.854   .     S
V9     Er54    9.854   1_565     S
V10     V39    10.146   .     S
V10     V40    10.146   .     S
V10     V24    10.146   .     S
V10     V25    10.146   .     S
V10     V30    10.146   .     S
V10     V29    10.146   .     S
V10     Er50    9.854   .     S
V10     Er60    9.854   .     S
V10     Er55    9.854   1_565     S
V11     V25    10.146   1_654     S
V11     V21    10.146   1_655     S
V11     V40    10.146   1_544     S
V11     V36    10.146   1_545     S
V11     V31    10.146   .     S
V11     V35    10.146   1_554     S
V11     Er51    9.854   .     S
V11     Er41    9.854   1_655     S
V11     Er46    9.854   1_655     S
V12     V21    10.146   1_655     S
V12     V22    10.146   1_655     S
V12     V36    10.146   1_545     S
V12     V37    10.146   1_545     S
V12     V32    10.146   .     S
V12     V31    10.146   .     S
V12     Er52    9.854   .     S
V12     Er42    9.854   1_655     S
V12     Er47    9.854   1_655     S
V13     V22    10.146   1_655     S
V13     V23    10.146   1_655     S
V13     V37    10.146   1_545     S
V13     V38    10.146   1_545     S
V13     V33    10.146   .     S
V13     V32    10.146   .     S
V13     Er53    9.854   .     S
V13     Er43    9.854   1_655     S
V13     Er48    9.854   1_655     S
V14     V23    10.146   1_655     S
V14     V24    10.146   1_655     S
V14     V38    10.146   1_545     S
V14     V39    10.146   1_545     S
V14     V34    10.146   .     S
V14     V33    10.146   .     S
V14     Er54    9.854   .     S
V14     Er44    9.854   1_655     S
V14     Er49    9.854   1_655     S
V15     V24    10.146   1_655     S
V15     V25    10.146   1_655     S
V15     V39    10.146   1_545     S
V15     V40    10.146   1_545     S
V15     V35    10.146   .     S
V15     V34    10.146   .     S
V15     Er55    9.854   .     S
V15     Er45    9.854   1_655     S
V15     Er50    9.854   1_655     S
V16     V30    10.146   1_654     S
V16     V26    10.146   1_655     S
V16     V35    10.146   1_554     S
V16     V31    10.146   .     S
V16     V36    10.146   .     S
V16     V40    10.146   1_554     S
V16     Er56    9.854   .     S
V16     Er46    9.854   1_655     S
V16     Er41    9.854   1_665     S
V17     V26    10.146   1_655     S
V17     V27    10.146   1_655     S
V17     V31    10.146   .     S
V17     V32    10.146   .     S
V17     V37    10.146   .     S
V17     V36    10.146   .     S
V17     Er57    9.854   .     S
V17     Er47    9.854   1_655     S
V17     Er42    9.854   1_665     S
V18     V27    10.146   1_655     S
V18     V28    10.146   1_655     S
V18     V32    10.146   .     S
V18     V33    10.146   .     S
V18     V38    10.146   .     S
V18     V37    10.146   .     S
V18     Er58    9.854   .     S
V18     Er48    9.854   1_655     S
V18     Er43    9.854   1_665     S
V19     V28    10.146   1_655     S
V19     V29    10.146   1_655     S
V19     V33    10.146   .     S
V19     V34    10.146   .     S
V19     V39    10.146   .     S
V19     V38    10.146   .     S
V19     Er59    9.854   .     S
V19     Er49    9.854   1_655     S
V19     Er44    9.854   1_665     S
V20     V29    10.146   1_655     S
V20     V30    10.146   1_655     S
V20     V34    10.146   .     S
V20     V35    10.146   .     S
V20     V40    10.146   .     S
V20     V39    10.146   .     S
V20     Er60    9.854   .     S
V20     Er50    9.854   1_655     S
V20     Er45    9.854   1_665     S
V21     V12    10.146   1_455     S
V21     V11    10.146   1_455     S
V21     Er61    9.854   .     S
V21     Er66    9.854   .     S
V21     Er76    9.854   .     S
V22     V13    10.146   1_455     S
V22     V12    10.146   1_455     S
V22     Er62    9.854   .     S
V22     Er67    9.854   .     S
V22     Er77    9.854   .     S
V23     V14    10.146   1_455     S
V23     V13    10.146   1_455     S
V23     Er63    9.854   .     S
V23     Er68    9.854   .     S
V23     Er78    9.854   .     S
V24     V15    10.146   1_455     S
V24     V14    10.146   1_455     S
V24     Er64    9.854   .     S
V24     Er69    9.854   .     S
V24     Er79    9.854   .     S
V25     V11    10.146   1_456     S
V25     V15    10.146   1_455     S
V25     V6    10.146   1_556     S
V25     V1    10.146   1_556     S
V25     Er65    9.854   .     S
V25     Er70    9.854   .     S
V25     Er80    9.854   .     S
V26     V17    10.146   1_455     S
V26     V16    10.146   1_455     S
V26     V2    10.146   1_565     S
V26     V1    10.146   1_565     S
V26     Er66    9.854   .     S
V26     Er61    9.854   1_565     S
V26     Er71    9.854   1_565     S
V27     V18    10.146   1_455     S
V27     V17    10.146   1_455     S
V27     V3    10.146   1_565     S
V27     V2    10.146   1_565     S
V27     Er67    9.854   .     S
V27     Er62    9.854   1_565     S
V27     Er72    9.854   1_565     S
V28     V19    10.146   1_455     S
V28     V18    10.146   1_455     S
V28     V4    10.146   1_565     S
V28     V3    10.146   1_565     S
V28     Er68    9.854   .     S
V28     Er63    9.854   1_565     S
V28     Er73    9.854   1_565     S
V29     V20    10.146   1_455     S
V29     V19    10.146   1_455     S
V29     V5    10.146   1_565     S
V29     V4    10.146   1_565     S
V29     Er69    9.854   .     S
V29     Er64    9.854   1_565     S
V29     Er74    9.854   1_565     S
V30     V16    10.146   1_456     S
V30     V20    10.146   1_455     S
V30     V1    10.146   1_566     S
V30     V5    10.146   1_565     S
V30     V6    10.146   1_556     S
V30     Er70    9.854   .     S
V30     Er65    9.854   1_565     S
V30     Er75    9.854   1_565     S
V31     Er71    9.854   .     S
V31     Er76    9.854   .     S
V31     Er66    9.854   1_655     S
V32     Er72    9.854   .     S
V32     Er77    9.854   .     S
V32     Er67    9.854   1_655     S
V33     Er73    9.854   .     S
V33     Er78    9.854   .     S
V33     Er68    9.854   1_655     S
V34     Er74    9.854   .     S
V34     Er79    9.854   .     S
V34     Er69    9.854   1_655     S
V35     V1    10.146   1_556     S
V35     V16    10.146   1_556     S
V35     V11    10.146   1_556     S
V35     Er75    9.854   .     S
V35     Er80    9.854   .     S
V35     Er70    9.854   1_655     S
V36     V12    10.146   1_565     S
V36     V11    10.146   1_565     S
V36     Er76    9.854   .     S
V36     Er71    9.854   1_565     S
V36     Er61    9.854   1_665     S
V37     V13    10.146   1_565     S
V37     V12    10.146   1_565     S
V37     Er77    9.854   .     S
V37     Er72    9.854   1_565     S
V37     Er62    9.854   1_665     S
V38     V14    10.146   1_565     S
V38     V13    10.146   1_565     S
V38     Er78    9.854   .     S
V38     Er73    9.854   1_565     S
V38     Er63    9.854   1_665     S
V39     V15    10.146   1_565     S
V39     V14    10.146   1_565     S
V39     Er79    9.854   .     S
V39     Er74    9.854   1_565     S
V39     Er64    9.854   1_665     S
V40     V6    10.146   1_556     S
V40     V11    10.146   1_566     S
V40     V15    10.146   1_565     S
V40     V16    10.146   1_556     S
V40     Er80    9.854   .     S
V40     Er75    9.854   1_565     S
V40     Er65    9.854   1_665     S
Er41     V11    9.854   1_455     S
Er41     V16    9.854   1_445     S
Er42     V12    9.854   1_455     S
Er42     V17    9.854   1_445     S
Er43     V13    9.854   1_455     S
Er43     V18    9.854   1_445     S
Er44     V14    9.854   1_455     S
Er44     V19    9.854   1_445     S
Er45     V15    9.854   1_455     S
Er45     V20    9.854   1_445     S
Er46     V16    9.854   1_455     S
Er46     V11    9.854   1_455     S
Er47     V17    9.854   1_455     S
Er47     V12    9.854   1_455     S
Er48     V18    9.854   1_455     S
Er48     V13    9.854   1_455     S
Er49     V19    9.854   1_455     S
Er49     V14    9.854   1_455     S
Er50     V20    9.854   1_455     S
Er50     V15    9.854   1_455     S
Er51     V6    9.854   1_545     S
Er52     V7    9.854   1_545     S
Er53     V8    9.854   1_545     S
Er54     V9    9.854   1_545     S
Er55     V10    9.854   1_545     S
Er61     V26    9.854   1_545     S
Er61     V36    9.854   1_445     S
Er62     V27    9.854   1_545     S
Er62     V37    9.854   1_445     S
Er63     V28    9.854   1_545     S
Er63     V38    9.854   1_445     S
Er64     V29    9.854   1_545     S
Er64     V39    9.854   1_445     S
Er65     V30    9.854   1_545     S
Er65     V40    9.854   1_445     S
Er66     V31    9.854   1_455     S
Er67     V32    9.854   1_455     S
Er68     V33    9.854   1_455     S
Er69     V34    9.854   1_455     S
Er70     V35    9.854   1_455     S
Er71     V36    9.854   1_545     S
Er71     V26    9.854   1_545     S
Er72     V37    9.854   1_545     S
Er72     V27    9.854   1_545     S
Er73     V38    9.854   1_545     S
Er73     V28    9.854   1_545     S
Er74     V39    9.854   1_545     S
Er74     V29    9.854   1_545     S
Er75     V40    9.854   1_545     S
Er75     V30    9.854   1_545     S
