data_nin-d
_audit_creation_date              2019-12-31
_audit_creation_method            'Pymatgen'
_symmetry_space_group_name_H-M    'P1'
_symmetry_Int_Tables_number       1
loop_
_symmetry_equiv_pos_as_xyz
  x,y,z
_cell_length_a                    50.3018
_cell_length_b                    50.3018
_cell_length_c                    34.2008
_cell_angle_alpha                 90.0
_cell_angle_beta                 90.0
_cell_angle_gamma                 120.0
loop_
_atom_site_label
_atom_site_type_symbol
_atom_site_fract_x
_atom_site_fract_y
_atom_site_fract_z
V1     V     0.0   0.166   0.25
V2     V     0.0   0.166   0.75
V3     V     0.0   0.666   0.25
V4     V     0.0   0.666   0.75
V5     V     0.5   0.166   0.25
V6     V     0.5   0.166   0.75
V7     V     0.5   0.666   0.25
V8     V     0.5   0.666   0.75
V9     V     0.166   0.166   0.25
V10     V     0.166   0.166   0.75
V11     V     0.166   0.666   0.25
V12     V     0.166   0.666   0.75
V13     V     0.666   0.166   0.25
V14     V     0.666   0.166   0.75
V15     V     0.666   0.666   0.25
V16     V     0.666   0.666   0.75
V17     V     0.166   0.0   0.25
V18     V     0.166   0.0   0.75
V19     V     0.166   0.5   0.25
V20     V     0.166   0.5   0.75
V21     V     0.666   0.0   0.25
V22     V     0.666   0.0   0.75
V23     V     0.666   0.5   0.25
V24     V     0.666   0.5   0.75
V25     V     0.0   0.334   0.25
V26     V     0.0   0.334   0.75
V27     V     0.0   0.834   0.25
V28     V     0.0   0.834   0.75
V29     V     0.5   0.334   0.25
V30     V     0.5   0.334   0.75
V31     V     0.5   0.834   0.25
V32     V     0.5   0.834   0.75
V33     V     0.334   0.334   0.25
V34     V     0.334   0.334   0.75
V35     V     0.334   0.834   0.25
V36     V     0.334   0.834   0.75
V37     V     0.834   0.334   0.25
V38     V     0.834   0.334   0.75
V39     V     0.834   0.834   0.25
V40     V     0.834   0.834   0.75
V41     V     0.334   0.0   0.25
V42     V     0.334   0.0   0.75
V43     V     0.334   0.5   0.25
V44     V     0.334   0.5   0.75
V45     V     0.834   0.0   0.25
V46     V     0.834   0.0   0.75
V47     V     0.834   0.5   0.25
V48     V     0.834   0.5   0.75
Er49     Er     0.25   0.0   0.0
Er50     Er     0.25   0.0   0.5
Er51     Er     0.25   0.5   0.0
Er52     Er     0.25   0.5   0.5
Er53     Er     0.75   0.0   0.0
Er54     Er     0.75   0.0   0.5
Er55     Er     0.75   0.5   0.0
Er56     Er     0.75   0.5   0.5
Er57     Er     0.0   0.25   0.0
Er58     Er     0.0   0.25   0.5
Er59     Er     0.0   0.75   0.0
Er60     Er     0.0   0.75   0.5
Er61     Er     0.5   0.25   0.0
Er62     Er     0.5   0.25   0.5
Er63     Er     0.5   0.75   0.0
Er64     Er     0.5   0.75   0.5
Er65     Er     0.25   0.25   0.0
Er66     Er     0.25   0.25   0.5
Er67     Er     0.25   0.75   0.0
Er68     Er     0.25   0.75   0.5
Er69     Er     0.75   0.25   0.0
Er70     Er     0.75   0.25   0.5
Er71     Er     0.75   0.75   0.0
Er72     Er     0.75   0.75   0.5
loop_
_geom_bond_atom_site_label_1
_geom_bond_atom_site_label_2
_geom_bond_distance
_geom_bond_site_symmetry_2
_ccdc_geom_bond_type
V1     V45    8.349   1_455     S
V1     V9    8.349   .     S
V1     Er58    9.538   .     S
V1     Er57    9.538   .     S
V2     V46    8.349   1_455     S
V2     V10    8.349   .     S
V2     Er57    9.538   1_556     S
V2     Er58    9.538   .     S
V3     V47    8.349   1_455     S
V3     V11    8.349   .     S
V3     Er60    9.538   .     S
V3     Er59    9.538   .     S
V4     V48    8.349   1_455     S
V4     V12    8.349   .     S
V4     Er59    9.538   1_556     S
V4     Er60    9.538   .     S
V5     V41    8.349   .     S
V5     V13    8.349   .     S
V5     Er62    9.538   .     S
V5     Er61    9.538   .     S
V6     V42    8.349   .     S
V6     V14    8.349   .     S
V6     Er61    9.538   1_556     S
V6     Er62    9.538   .     S
V7     V43    8.349   .     S
V7     V15    8.349   .     S
V7     Er64    9.538   .     S
V7     Er63    9.538   .     S
V8     V44    8.349   .     S
V8     V16    8.349   .     S
V8     Er63    9.538   1_556     S
V8     Er64    9.538   .     S
V9     V17    8.349   .     S
V9     Er66    9.538   .     S
V9     Er65    9.538   .     S
V10     V18    8.349   .     S
V10     Er65    9.538   1_556     S
V10     Er66    9.538   .     S
V11     V19    8.349   .     S
V11     Er68    9.538   .     S
V11     Er67    9.538   .     S
V12     V20    8.349   .     S
V12     Er67    9.538   1_556     S
V12     Er68    9.538   .     S
V13     V21    8.349   .     S
V13     Er70    9.538   .     S
V13     Er69    9.538   .     S
V14     V22    8.349   .     S
V14     Er69    9.538   1_556     S
V14     Er70    9.538   .     S
V15     V23    8.349   .     S
V15     Er72    9.538   .     S
V15     Er71    9.538   .     S
V16     V24    8.349   .     S
V16     Er71    9.538   1_556     S
V16     Er72    9.538   .     S
V17     V27    8.349   1_545     S
V17     Er50    9.538   .     S
V17     Er49    9.538   .     S
V18     V28    8.349   1_545     S
V18     Er49    9.538   1_556     S
V18     Er50    9.538   .     S
V19     V25    8.349   .     S
V19     Er52    9.538   .     S
V19     Er51    9.538   .     S
V20     V26    8.349   .     S
V20     Er51    9.538   1_556     S
V20     Er52    9.538   .     S
V21     V31    8.349   1_545     S
V21     Er54    9.538   .     S
V21     Er53    9.538   .     S
V22     V32    8.349   1_545     S
V22     Er53    9.538   1_556     S
V22     Er54    9.538   .     S
V23     V29    8.349   .     S
V23     Er56    9.538   .     S
V23     Er55    9.538   .     S
V24     V30    8.349   .     S
V24     Er55    9.538   1_556     S
V24     Er56    9.538   .     S
V25     V37    8.349   1_455     S
V25     Er58    9.538   .     S
V25     Er57    9.538   .     S
V26     V38    8.349   1_455     S
V26     Er57    9.538   1_556     S
V26     Er58    9.538   .     S
V27     V39    8.349   1_455     S
V27     V17    8.349   1_565     S
V27     Er60    9.538   .     S
V27     Er59    9.538   .     S
V28     V40    8.349   1_455     S
V28     V18    8.349   1_565     S
V28     Er59    9.538   1_556     S
V28     Er60    9.538   .     S
V29     V33    8.349   .     S
V29     Er62    9.538   .     S
V29     Er61    9.538   .     S
V30     V34    8.349   .     S
V30     Er61    9.538   1_556     S
V30     Er62    9.538   .     S
V31     V35    8.349   .     S
V31     V21    8.349   1_565     S
V31     Er64    9.538   .     S
V31     Er63    9.538   .     S
V32     V36    8.349   .     S
V32     V22    8.349   1_565     S
V32     Er63    9.538   1_556     S
V32     Er64    9.538   .     S
V33     V43    8.349   .     S
V33     Er66    9.538   .     S
V33     Er65    9.538   .     S
V34     V44    8.349   .     S
V34     Er65    9.538   1_556     S
V34     Er66    9.538   .     S
V35     V41    8.349   1_565     S
V35     Er68    9.538   .     S
V35     Er67    9.538   .     S
V36     V42    8.349   1_565     S
V36     Er67    9.538   1_556     S
V36     Er68    9.538   .     S
V37     V25    8.349   1_655     S
V37     V47    8.349   .     S
V37     Er70    9.538   .     S
V37     Er69    9.538   .     S
V38     V26    8.349   1_655     S
V38     V48    8.349   .     S
V38     Er69    9.538   1_556     S
V38     Er70    9.538   .     S
V39     V27    8.349   1_655     S
V39     V45    8.349   1_565     S
V39     Er72    9.538   .     S
V39     Er71    9.538   .     S
V40     V28    8.349   1_655     S
V40     V46    8.349   1_565     S
V40     Er71    9.538   1_556     S
V40     Er72    9.538   .     S
V41     V35    8.349   1_545     S
V41     Er50    9.538   .     S
V41     Er49    9.538   .     S
V42     V36    8.349   1_545     S
V42     Er49    9.538   1_556     S
V42     Er50    9.538   .     S
V43     Er52    9.538   .     S
V43     Er51    9.538   .     S
V44     Er51    9.538   1_556     S
V44     Er52    9.538   .     S
V45     V1    8.349   1_655     S
V45     V39    8.349   1_545     S
V45     Er54    9.538   .     S
V45     Er53    9.538   .     S
V46     V2    8.349   1_655     S
V46     V40    8.349   1_545     S
V46     Er53    9.538   1_556     S
V46     Er54    9.538   .     S
V47     V3    8.349   1_655     S
V47     Er56    9.538   .     S
V47     Er55    9.538   .     S
V48     V4    8.349   1_655     S
V48     Er55    9.538   1_556     S
V48     Er56    9.538   .     S
Er49     Er61    12.575   .     S
Er49     Er65    12.575   .     S
Er49     Er67    12.575   1_545     S
Er49     Er59    12.575   1_545     S
Er49     V42    9.538   1_554     S
Er49     V18    9.538   1_554     S
Er50     Er62    12.575   .     S
Er50     Er66    12.575   .     S
Er50     Er68    12.575   1_545     S
Er50     Er60    12.575   1_545     S
Er51     Er63    12.575   .     S
Er51     Er67    12.575   .     S
Er51     Er65    12.575   .     S
Er51     Er57    12.575   .     S
Er51     V44    9.538   1_554     S
Er51     V20    9.538   1_554     S
Er52     Er64    12.575   .     S
Er52     Er68    12.575   .     S
Er52     Er66    12.575   .     S
Er52     Er58    12.575   .     S
Er53     Er57    12.575   1_655     S
Er53     Er69    12.575   .     S
Er53     Er71    12.575   1_545     S
Er53     Er63    12.575   1_545     S
Er53     V46    9.538   1_554     S
Er53     V22    9.538   1_554     S
Er54     Er58    12.575   1_655     S
Er54     Er70    12.575   .     S
Er54     Er72    12.575   1_545     S
Er54     Er64    12.575   1_545     S
Er55     Er59    12.575   1_655     S
Er55     Er71    12.575   .     S
Er55     Er69    12.575   .     S
Er55     Er61    12.575   .     S
Er55     V48    9.538   1_554     S
Er55     V24    9.538   1_554     S
Er56     Er60    12.575   1_655     S
Er56     Er72    12.575   .     S
Er56     Er70    12.575   .     S
Er56     Er62    12.575   .     S
Er57     Er53    12.575   1_455     S
Er57     Er69    12.575   1_455     S
Er57     Er65    12.575   .     S
Er57     V26    9.538   1_554     S
Er57     V2    9.538   1_554     S
Er58     Er54    12.575   1_455     S
Er58     Er70    12.575   1_455     S
Er58     Er66    12.575   .     S
Er59     Er55    12.575   1_455     S
Er59     Er71    12.575   1_455     S
Er59     Er67    12.575   .     S
Er59     Er49    12.575   1_565     S
Er59     V28    9.538   1_554     S
Er59     V4    9.538   1_554     S
Er60     Er56    12.575   1_455     S
Er60     Er72    12.575   1_455     S
Er60     Er68    12.575   .     S
Er60     Er50    12.575   1_565     S
Er61     Er65    12.575   .     S
Er61     Er69    12.575   .     S
Er61     V30    9.538   1_554     S
Er61     V6    9.538   1_554     S
Er62     Er66    12.575   .     S
Er62     Er70    12.575   .     S
Er63     Er67    12.575   .     S
Er63     Er71    12.575   .     S
Er63     Er53    12.575   1_565     S
Er63     V32    9.538   1_554     S
Er63     V8    9.538   1_554     S
Er64     Er68    12.575   .     S
Er64     Er72    12.575   .     S
Er64     Er54    12.575   1_565     S
Er65     V34    9.538   1_554     S
Er65     V10    9.538   1_554     S
Er67     Er49    12.575   1_565     S
Er67     V36    9.538   1_554     S
Er67     V12    9.538   1_554     S
Er68     Er50    12.575   1_565     S
Er69     Er57    12.575   1_655     S
Er69     V38    9.538   1_554     S
Er69     V14    9.538   1_554     S
Er70     Er58    12.575   1_655     S
Er71     Er59    12.575   1_655     S
Er71     Er53    12.575   1_565     S
Er71     V40    9.538   1_554     S
Er71     V16    9.538   1_554     S
Er72     Er60    12.575   1_655     S
Er72     Er54    12.575   1_565     S
