data_nin
_audit_creation_date              2019-12-31
_audit_creation_method            'Pymatgen'
_symmetry_space_group_name_H-M    'P1'
_symmetry_Int_Tables_number       1
loop_
_symmetry_equiv_pos_as_xyz
  x,y,z
_cell_length_a                    30.9636
_cell_length_b                    30.9636
_cell_length_c                    30.1428
_cell_angle_alpha                 90.0
_cell_angle_beta                 90.0
_cell_angle_gamma                 120.0
loop_
_atom_site_label
_atom_site_type_symbol
_atom_site_fract_x
_atom_site_fract_y
_atom_site_fract_z
Er1     Er     0.0   0.0   0.1667
Er2     Er     0.0   0.0   0.5
Er3     Er     0.0   0.0   0.8333
Er4     Er     0.0   0.5   0.1667
Er5     Er     0.0   0.5   0.5
Er6     Er     0.0   0.5   0.8333
Er7     Er     0.5   0.0   0.1667
Er8     Er     0.5   0.0   0.5
Er9     Er     0.5   0.0   0.8333
Er10     Er     0.5   0.5   0.1667
Er11     Er     0.5   0.5   0.5
Er12     Er     0.5   0.5   0.8333
V13     V     0.1667   0.3333   0.0
V14     V     0.1667   0.3333   0.3333
V15     V     0.1667   0.3333   0.6667
V16     V     0.1667   0.8333   0.0
V17     V     0.1667   0.8333   0.3333
V18     V     0.1667   0.8333   0.6667
V19     V     0.6667   0.3333   0.0
V20     V     0.6667   0.3333   0.3333
V21     V     0.6667   0.3333   0.6667
V22     V     0.6667   0.8333   0.0
V23     V     0.6667   0.8333   0.3333
V24     V     0.6667   0.8333   0.6667
V25     V     0.3333   0.1667   0.0
V26     V     0.3333   0.1667   0.3333
V27     V     0.3333   0.1667   0.6667
V28     V     0.3333   0.6667   0.0
V29     V     0.3333   0.6667   0.3333
V30     V     0.3333   0.6667   0.6667
V31     V     0.8333   0.1667   0.0
V32     V     0.8333   0.1667   0.3333
V33     V     0.8333   0.1667   0.6667
V34     V     0.8333   0.6667   0.0
V35     V     0.8333   0.6667   0.3333
V36     V     0.8333   0.6667   0.6667
loop_
_geom_bond_atom_site_label_1
_geom_bond_atom_site_label_2
_geom_bond_distance
_geom_bond_site_symmetry_2
_ccdc_geom_bond_type
Er1     Er3    10.048   1_554     S
Er1     Er2    10.048   .     S
Er1     V16    10.253   1_545     S
Er1     V25    10.253   .     S
Er1     V13    10.254   .     S
Er1     V31    10.254   1_455     S
Er1     V22    10.253   1_445     S
Er1     V34    10.253   1_445     S
Er1     V17    10.253   1_545     S
Er1     V26    10.253   .     S
Er1     V14    10.254   .     S
Er1     V32    10.254   1_455     S
Er1     V23    10.253   1_445     S
Er1     V35    10.253   1_445     S
Er2     Er3    10.048   .     S
Er2     V17    10.253   1_545     S
Er2     V26    10.253   .     S
Er2     V14    10.254   .     S
Er2     V32    10.254   1_455     S
Er2     V23    10.253   1_445     S
Er2     V35    10.253   1_445     S
Er2     V18    10.253   1_545     S
Er2     V27    10.253   .     S
Er2     V15    10.254   .     S
Er2     V33    10.254   1_455     S
Er2     V24    10.253   1_445     S
Er2     V36    10.253   1_445     S
Er3     Er1    10.048   1_556     S
Er3     V18    10.253   1_545     S
Er3     V27    10.253   .     S
Er3     V15    10.254   .     S
Er3     V33    10.254   1_455     S
Er3     V24    10.253   1_445     S
Er3     V36    10.253   1_445     S
Er3     V16    10.253   1_546     S
Er3     V25    10.253   1_556     S
Er3     V13    10.254   1_556     S
Er3     V31    10.254   1_456     S
Er3     V22    10.253   1_446     S
Er3     V34    10.253   1_446     S
Er4     Er6    10.048   1_554     S
Er4     Er5    10.048   .     S
Er4     V13    10.253   .     S
Er4     V28    10.253   .     S
Er4     V16    10.254   .     S
Er4     V34    10.254   1_455     S
Er4     V19    10.253   1_455     S
Er4     V31    10.253   1_455     S
Er4     V14    10.253   .     S
Er4     V29    10.253   .     S
Er4     V17    10.254   .     S
Er4     V35    10.254   1_455     S
Er4     V20    10.253   1_455     S
Er4     V32    10.253   1_455     S
Er5     Er6    10.048   .     S
Er5     V14    10.253   .     S
Er5     V29    10.253   .     S
Er5     V17    10.254   .     S
Er5     V35    10.254   1_455     S
Er5     V20    10.253   1_455     S
Er5     V32    10.253   1_455     S
Er5     V15    10.253   .     S
Er5     V30    10.253   .     S
Er5     V18    10.254   .     S
Er5     V36    10.254   1_455     S
Er5     V21    10.253   1_455     S
Er5     V33    10.253   1_455     S
Er6     Er4    10.048   1_556     S
Er6     V15    10.253   .     S
Er6     V30    10.253   .     S
Er6     V18    10.254   .     S
Er6     V36    10.254   1_455     S
Er6     V21    10.253   1_455     S
Er6     V33    10.253   1_455     S
Er6     V13    10.253   1_556     S
Er6     V28    10.253   1_556     S
Er6     V16    10.254   1_556     S
Er6     V34    10.254   1_456     S
Er6     V19    10.253   1_456     S
Er6     V31    10.253   1_456     S
Er7     Er9    10.048   1_554     S
Er7     Er8    10.048   .     S
Er7     V22    10.253   1_545     S
Er7     V31    10.253   .     S
Er7     V19    10.254   .     S
Er7     V25    10.254   .     S
Er7     V16    10.253   1_545     S
Er7     V28    10.253   1_545     S
Er7     V23    10.253   1_545     S
Er7     V32    10.253   .     S
Er7     V20    10.254   .     S
Er7     V26    10.254   .     S
Er7     V17    10.253   1_545     S
Er7     V29    10.253   1_545     S
Er8     Er9    10.048   .     S
Er8     V23    10.253   1_545     S
Er8     V32    10.253   .     S
Er8     V20    10.254   .     S
Er8     V26    10.254   .     S
Er8     V17    10.253   1_545     S
Er8     V29    10.253   1_545     S
Er8     V24    10.253   1_545     S
Er8     V33    10.253   .     S
Er8     V21    10.254   .     S
Er8     V27    10.254   .     S
Er8     V18    10.253   1_545     S
Er8     V30    10.253   1_545     S
Er9     Er7    10.048   1_556     S
Er9     V24    10.253   1_545     S
Er9     V33    10.253   .     S
Er9     V21    10.254   .     S
Er9     V27    10.254   .     S
Er9     V18    10.253   1_545     S
Er9     V30    10.253   1_545     S
Er9     V22    10.253   1_546     S
Er9     V31    10.253   1_556     S
Er9     V19    10.254   1_556     S
Er9     V25    10.254   1_556     S
Er9     V16    10.253   1_546     S
Er9     V28    10.253   1_546     S
Er10     Er12    10.048   1_554     S
Er10     Er11    10.048   .     S
Er10     V19    10.253   .     S
Er10     V34    10.253   .     S
Er10     V22    10.254   .     S
Er10     V28    10.254   .     S
Er10     V13    10.253   .     S
Er10     V25    10.253   .     S
Er10     V20    10.253   .     S
Er10     V35    10.253   .     S
Er10     V23    10.254   .     S
Er10     V29    10.254   .     S
Er10     V14    10.253   .     S
Er10     V26    10.253   .     S
Er11     Er12    10.048   .     S
Er11     V20    10.253   .     S
Er11     V35    10.253   .     S
Er11     V23    10.254   .     S
Er11     V29    10.254   .     S
Er11     V14    10.253   .     S
Er11     V26    10.253   .     S
Er11     V21    10.253   .     S
Er11     V36    10.253   .     S
Er11     V24    10.254   .     S
Er11     V30    10.254   .     S
Er11     V15    10.253   .     S
Er11     V27    10.253   .     S
Er12     Er10    10.048   1_556     S
Er12     V21    10.253   .     S
Er12     V36    10.253   .     S
Er12     V24    10.254   .     S
Er12     V30    10.254   .     S
Er12     V15    10.253   .     S
Er12     V27    10.253   .     S
Er12     V19    10.253   1_556     S
Er12     V34    10.253   1_556     S
Er12     V22    10.254   1_556     S
Er12     V28    10.254   1_556     S
Er12     V13    10.253   1_556     S
Er12     V25    10.253   1_556     S
V13     V25    8.938   .     S
V13     V28    8.938   .     S
V13     V31    8.938   1_455     S
V13     V14    10.048   .     S
V13     V15    10.048   1_554     S
V13     Er6    10.253   1_554     S
V13     Er3    10.254   1_554     S
V13     Er12    10.253   1_554     S
V14     V26    8.938   .     S
V14     V29    8.938   .     S
V14     V32    8.938   1_455     S
V14     V15    10.048   .     S
V15     V27    8.938   .     S
V15     V30    8.938   .     S
V15     V33    8.938   1_455     S
V15     V13    10.048   1_556     S
V16     V28    8.938   .     S
V16     V25    8.938   1_565     S
V16     V34    8.938   1_455     S
V16     V17    10.048   .     S
V16     V18    10.048   1_554     S
V16     Er1    10.253   1_565     S
V16     Er7    10.253   1_565     S
V16     Er3    10.253   1_564     S
V16     Er6    10.254   1_554     S
V16     Er9    10.253   1_564     S
V17     V29    8.938   .     S
V17     V26    8.938   1_565     S
V17     V35    8.938   1_455     S
V17     V18    10.048   .     S
V17     Er2    10.253   1_565     S
V17     Er8    10.253   1_565     S
V17     Er1    10.253   1_565     S
V17     Er7    10.253   1_565     S
V18     V30    8.938   .     S
V18     V27    8.938   1_565     S
V18     V36    8.938   1_455     S
V18     V16    10.048   1_556     S
V18     Er3    10.253   1_565     S
V18     Er9    10.253   1_565     S
V18     Er2    10.253   1_565     S
V18     Er8    10.253   1_565     S
V19     V31    8.938   .     S
V19     V34    8.938   .     S
V19     V25    8.938   .     S
V19     V20    10.048   .     S
V19     V21    10.048   1_554     S
V19     Er4    10.253   1_655     S
V19     Er12    10.253   1_554     S
V19     Er9    10.254   1_554     S
V19     Er6    10.253   1_654     S
V20     V32    8.938   .     S
V20     V35    8.938   .     S
V20     V26    8.938   .     S
V20     V21    10.048   .     S
V20     Er5    10.253   1_655     S
V20     Er4    10.253   1_655     S
V21     V33    8.938   .     S
V21     V36    8.938   .     S
V21     V27    8.938   .     S
V21     V19    10.048   1_556     S
V21     Er6    10.253   1_655     S
V21     Er5    10.253   1_655     S
V22     V34    8.938   .     S
V22     V31    8.938   1_565     S
V22     V28    8.938   .     S
V22     V23    10.048   .     S
V22     V24    10.048   1_554     S
V22     Er7    10.253   1_565     S
V22     Er1    10.253   1_665     S
V22     Er9    10.253   1_564     S
V22     Er12    10.254   1_554     S
V22     Er3    10.253   1_664     S
V23     V35    8.938   .     S
V23     V32    8.938   1_565     S
V23     V29    8.938   .     S
V23     V24    10.048   .     S
V23     Er8    10.253   1_565     S
V23     Er2    10.253   1_665     S
V23     Er7    10.253   1_565     S
V23     Er1    10.253   1_665     S
V24     V36    8.938   .     S
V24     V33    8.938   1_565     S
V24     V30    8.938   .     S
V24     V22    10.048   1_556     S
V24     Er9    10.253   1_565     S
V24     Er3    10.253   1_665     S
V24     Er8    10.253   1_565     S
V24     Er2    10.253   1_665     S
V25     V16    8.938   1_545     S
V25     V26    10.048   .     S
V25     V27    10.048   1_554     S
V25     Er3    10.253   1_554     S
V25     Er9    10.254   1_554     S
V25     Er12    10.253   1_554     S
V26     V17    8.938   1_545     S
V26     V27    10.048   .     S
V27     V18    8.938   1_545     S
V27     V25    10.048   1_556     S
V28     V29    10.048   .     S
V28     V30    10.048   1_554     S
V28     Er7    10.253   1_565     S
V28     Er6    10.253   1_554     S
V28     Er12    10.254   1_554     S
V28     Er9    10.253   1_564     S
V29     V30    10.048   .     S
V29     Er8    10.253   1_565     S
V29     Er7    10.253   1_565     S
V30     V28    10.048   1_556     S
V30     Er9    10.253   1_565     S
V30     Er8    10.253   1_565     S
V31     V22    8.938   1_545     S
V31     V13    8.938   1_655     S
V31     V32    10.048   .     S
V31     V33    10.048   1_554     S
V31     Er1    10.254   1_655     S
V31     Er4    10.253   1_655     S
V31     Er9    10.253   1_554     S
V31     Er3    10.254   1_654     S
V31     Er6    10.253   1_654     S
V32     V23    8.938   1_545     S
V32     V14    8.938   1_655     S
V32     V33    10.048   .     S
V32     Er2    10.254   1_655     S
V32     Er5    10.253   1_655     S
V32     Er1    10.254   1_655     S
V32     Er4    10.253   1_655     S
V33     V24    8.938   1_545     S
V33     V15    8.938   1_655     S
V33     V31    10.048   1_556     S
V33     Er3    10.254   1_655     S
V33     Er6    10.253   1_655     S
V33     Er2    10.254   1_655     S
V33     Er5    10.253   1_655     S
V34     V16    8.938   1_655     S
V34     V35    10.048   .     S
V34     V36    10.048   1_554     S
V34     Er4    10.254   1_655     S
V34     Er1    10.253   1_665     S
V34     Er12    10.253   1_554     S
V34     Er6    10.254   1_654     S
V34     Er3    10.253   1_664     S
V35     V17    8.938   1_655     S
V35     V36    10.048   .     S
V35     Er5    10.254   1_655     S
V35     Er2    10.253   1_665     S
V35     Er4    10.254   1_655     S
V35     Er1    10.253   1_665     S
V36     V18    8.938   1_655     S
V36     V34    10.048   1_556     S
V36     Er6    10.254   1_655     S
V36     Er3    10.253   1_665     S
V36     Er5    10.254   1_655     S
V36     Er2    10.253   1_665     S
