data_nkd
_audit_creation_date              2019-12-31
_audit_creation_method            'Pymatgen'
_symmetry_space_group_name_H-M    'P1'
_symmetry_Int_Tables_number       1
loop_
_symmetry_equiv_pos_as_xyz
  x,y,z
_cell_length_a                    36.0292
_cell_length_b                    36.0292
_cell_length_c                    74.7521
_cell_angle_alpha                 90.0
_cell_angle_beta                 90.0
_cell_angle_gamma                 90.0
loop_
_atom_site_label
_atom_site_type_symbol
_atom_site_fract_x
_atom_site_fract_y
_atom_site_fract_z
V1     V     0.0   0.25   0.6919
V2     V     0.0   0.75   0.6919
V3     V     0.5   0.25   0.6919
V4     V     0.5   0.75   0.6919
Er5     Er     0.0   0.25   0.5581
Er6     Er     0.0   0.75   0.5581
Er7     Er     0.5   0.25   0.5581
Er8     Er     0.5   0.75   0.5581
Ce9     Ce     0.0   0.0   0.5
Ce10     Ce     0.0   0.5   0.5
Ce11     Ce     0.5   0.0   0.5
Ce12     Ce     0.5   0.5   0.5
V13     V     0.25   0.0   0.8081
V14     V     0.25   0.5   0.8081
V15     V     0.75   0.0   0.8081
V16     V     0.75   0.5   0.8081
Er17     Er     0.25   0.0   0.9419
Er18     Er     0.25   0.5   0.9419
Er19     Er     0.75   0.0   0.9419
Er20     Er     0.75   0.5   0.9419
Ti21     Ti     0.0   0.0   0.75
Ti22     Ti     0.0   0.5   0.75
Ti23     Ti     0.5   0.0   0.75
Ti24     Ti     0.5   0.5   0.75
V25     V     0.0   0.25   0.3081
V26     V     0.0   0.75   0.3081
V27     V     0.5   0.25   0.3081
V28     V     0.5   0.75   0.3081
Er29     Er     0.0   0.25   0.4419
Er30     Er     0.0   0.75   0.4419
Er31     Er     0.5   0.25   0.4419
Er32     Er     0.5   0.75   0.4419
Ti33     Ti     0.0   0.0   0.25
Ti34     Ti     0.0   0.5   0.25
Ti35     Ti     0.5   0.0   0.25
Ti36     Ti     0.5   0.5   0.25
Ce37     Ce     0.0   0.0   0.0
Ce38     Ce     0.0   0.5   0.0
Ce39     Ce     0.5   0.0   0.0
Ce40     Ce     0.5   0.5   0.0
V41     V     0.25   0.0   0.1919
V42     V     0.25   0.5   0.1919
V43     V     0.75   0.0   0.1919
V44     V     0.75   0.5   0.1919
Er45     Er     0.25   0.0   0.0581
Er46     Er     0.25   0.5   0.0581
Er47     Er     0.75   0.0   0.0581
Er48     Er     0.75   0.5   0.0581
loop_
_geom_bond_atom_site_label_1
_geom_bond_atom_site_label_2
_geom_bond_distance
_geom_bond_site_symmetry_2
_ccdc_geom_bond_type
V1     Er5    9.997   .     S
V1     Ti21    10.001   .     S
V1     Ti22    10.001   .     S
V2     Er6    9.997   .     S
V2     Ti22    10.001   .     S
V2     Ti21    10.001   1_565     S
V3     Er7    9.997   .     S
V3     Ti23    10.001   .     S
V3     Ti24    10.001   .     S
V4     Er8    9.997   .     S
V4     Ti24    10.001   .     S
V4     Ti23    10.001   1_565     S
Er5     Ce10    10.001   .     S
Er5     Ce9    10.001   .     S
Er6     Ce9    10.001   1_565     S
Er6     Ce10    10.001   .     S
Er7     Ce12    10.001   .     S
Er7     Ce11    10.001   .     S
Er8     Ce11    10.001   1_565     S
Er8     Ce12    10.001   .     S
Ce9     Er6    10.001   1_545     S
Ce9     Er30    10.001   1_545     S
Ce9     Er29    10.001   .     S
Ce10     Er29    10.001   .     S
Ce10     Er30    10.001   .     S
Ce11     Er8    10.001   1_545     S
Ce11     Er32    10.001   1_545     S
Ce11     Er31    10.001   .     S
Ce12     Er31    10.001   .     S
Ce12     Er32    10.001   .     S
V13     Er17    9.997   .     S
V13     Ti21    10.001   .     S
V13     Ti23    10.001   .     S
V14     Er18    9.997   .     S
V14     Ti22    10.001   .     S
V14     Ti24    10.001   .     S
V15     Er19    9.997   .     S
V15     Ti23    10.001   .     S
V15     Ti21    10.001   1_655     S
V16     Er20    9.997   .     S
V16     Ti24    10.001   .     S
V16     Ti22    10.001   1_655     S
Er17     Ce39    10.001   1_556     S
Er17     Ce37    10.001   1_556     S
Er18     Ce40    10.001   1_556     S
Er18     Ce38    10.001   1_556     S
Er19     Ce37    10.001   1_656     S
Er19     Ce39    10.001   1_556     S
Er20     Ce38    10.001   1_656     S
Er20     Ce40    10.001   1_556     S
Ti21     V2    10.001   1_545     S
Ti21     V15    10.001   1_455     S
Ti22     V16    10.001   1_455     S
Ti23     V4    10.001   1_545     S
V25     Er29    9.997   .     S
V25     Ti33    10.001   .     S
V25     Ti34    10.001   .     S
V26     Er30    9.997   .     S
V26     Ti34    10.001   .     S
V26     Ti33    10.001   1_565     S
V27     Er31    9.997   .     S
V27     Ti35    10.001   .     S
V27     Ti36    10.001   .     S
V28     Er32    9.997   .     S
V28     Ti36    10.001   .     S
V28     Ti35    10.001   1_565     S
Er30     Ce9    10.001   1_565     S
Er32     Ce11    10.001   1_565     S
Ti33     V26    10.001   1_545     S
Ti33     V41    10.001   .     S
Ti33     V43    10.001   1_455     S
Ti34     V42    10.001   .     S
Ti34     V44    10.001   1_455     S
Ti35     V28    10.001   1_545     S
Ti35     V43    10.001   .     S
Ti35     V41    10.001   .     S
Ti36     V44    10.001   .     S
Ti36     V42    10.001   .     S
Ce37     Er47    10.001   1_455     S
Ce37     Er19    10.001   1_454     S
Ce37     Er45    10.001   .     S
Ce37     Er17    10.001   1_554     S
Ce38     Er48    10.001   1_455     S
Ce38     Er20    10.001   1_454     S
Ce38     Er46    10.001   .     S
Ce38     Er18    10.001   1_554     S
Ce39     Er45    10.001   .     S
Ce39     Er17    10.001   1_554     S
Ce39     Er47    10.001   .     S
Ce39     Er19    10.001   1_554     S
Ce40     Er46    10.001   .     S
Ce40     Er18    10.001   1_554     S
Ce40     Er48    10.001   .     S
Ce40     Er20    10.001   1_554     S
V41     Er45    9.997   .     S
V42     Er46    9.997   .     S
V43     Er47    9.997   .     S
V43     Ti33    10.001   1_655     S
V44     Er48    9.997   .     S
V44     Ti34    10.001   1_655     S
Er47     Ce37    10.001   1_655     S
Er48     Ce38    10.001   1_655     S
