data_nkf
_audit_creation_date              2019-12-31
_audit_creation_method            'Pymatgen'
_symmetry_space_group_name_H-M    'P1'
_symmetry_Int_Tables_number       1
loop_
_symmetry_equiv_pos_as_xyz
  x,y,z
_cell_length_a                    36.0414
_cell_length_b                    36.0414
_cell_length_c                    112.052
_cell_angle_alpha                 90.0
_cell_angle_beta                 90.0
_cell_angle_gamma                 90.0
loop_
_atom_site_label
_atom_site_type_symbol
_atom_site_fract_x
_atom_site_fract_y
_atom_site_fract_z
Er1     Er     0.0   0.25   0.878
Er2     Er     0.0   0.75   0.878
Er3     Er     0.5   0.25   0.878
Er4     Er     0.5   0.75   0.878
Ti5     Ti     0.0   0.25   0.7887
Ti6     Ti     0.0   0.75   0.7887
Ti7     Ti     0.5   0.25   0.7887
Ti8     Ti     0.5   0.75   0.7887
V9     V     0.0   0.25   0.0446
V10     V     0.0   0.75   0.0446
V11     V     0.5   0.25   0.0446
V12     V     0.5   0.75   0.0446
V13     V     0.0   0.25   0.9554
V14     V     0.0   0.75   0.9554
V15     V     0.5   0.25   0.9554
V16     V     0.5   0.75   0.9554
Er17     Er     0.0   0.25   0.1221
Er18     Er     0.0   0.75   0.1221
Er19     Er     0.5   0.25   0.1221
Er20     Er     0.5   0.75   0.1221
Ti21     Ti     0.0   0.25   0.2113
Ti22     Ti     0.0   0.75   0.2113
Ti23     Ti     0.5   0.25   0.2113
Ti24     Ti     0.5   0.75   0.2113
Ce25     Ce     0.0   0.0   0.0833
Ce26     Ce     0.0   0.5   0.0833
Ce27     Ce     0.5   0.0   0.0833
Ce28     Ce     0.5   0.5   0.0833
Ce29     Ce     0.0   0.0   0.9167
Ce30     Ce     0.0   0.5   0.9167
Ce31     Ce     0.5   0.0   0.9167
Ce32     Ce     0.5   0.5   0.9167
S33     S     0.0   0.0   0.75
S34     S     0.0   0.5   0.75
S35     S     0.5   0.0   0.75
S36     S     0.5   0.5   0.75
S37     S     0.0   0.0   0.25
S38     S     0.0   0.5   0.25
S39     S     0.5   0.0   0.25
S40     S     0.5   0.5   0.25
Er41     Er     0.25   0.0   0.378
Er42     Er     0.25   0.5   0.378
Er43     Er     0.75   0.0   0.378
Er44     Er     0.75   0.5   0.378
Ti45     Ti     0.25   0.0   0.2887
Ti46     Ti     0.25   0.5   0.2887
Ti47     Ti     0.75   0.0   0.2887
Ti48     Ti     0.75   0.5   0.2887
V49     V     0.25   0.0   0.4554
V50     V     0.25   0.5   0.4554
V51     V     0.75   0.0   0.4554
V52     V     0.75   0.5   0.4554
V53     V     0.25   0.0   0.5446
V54     V     0.25   0.5   0.5446
V55     V     0.75   0.0   0.5446
V56     V     0.75   0.5   0.5446
Ti57     Ti     0.25   0.0   0.7113
Ti58     Ti     0.25   0.5   0.7113
Ti59     Ti     0.75   0.0   0.7113
Ti60     Ti     0.75   0.5   0.7113
Er61     Er     0.25   0.0   0.6221
Er62     Er     0.25   0.5   0.6221
Er63     Er     0.75   0.0   0.6221
Er64     Er     0.75   0.5   0.6221
Ce65     Ce     0.0   0.0   0.5833
Ce66     Ce     0.0   0.5   0.5833
Ce67     Ce     0.5   0.0   0.5833
Ce68     Ce     0.5   0.5   0.5833
Ce69     Ce     0.0   0.0   0.4167
Ce70     Ce     0.0   0.5   0.4167
Ce71     Ce     0.5   0.0   0.4167
Ce72     Ce     0.5   0.5   0.4167
loop_
_geom_bond_atom_site_label_1
_geom_bond_atom_site_label_2
_geom_bond_distance
_geom_bond_site_symmetry_2
_ccdc_geom_bond_type
Er1     Ce29    10.0   .     S
Er1     Ce30    10.0   .     S
Er1     Ti5    9.997   .     S
Er2     Ce30    10.0   .     S
Er2     Ce29    10.0   1_565     S
Er2     Ti6    9.997   .     S
Er3     Ce31    10.0   .     S
Er3     Ce32    10.0   .     S
Er3     Ti7    9.997   .     S
Er4     Ce32    10.0   .     S
Er4     Ce31    10.0   1_565     S
Er4     Ti8    9.997   .     S
Ti5     S33    10.001   .     S
Ti5     S34    10.001   .     S
Ti6     S34    10.001   .     S
Ti6     S33    10.001   1_565     S
Ti7     S35    10.001   .     S
Ti7     S36    10.001   .     S
Ti8     S36    10.001   .     S
Ti8     S35    10.001   1_565     S
V9     V13    9.997   1_554     S
V9     Ce25    10.001   .     S
V9     Ce26    10.001   .     S
V10     V14    9.997   1_554     S
V10     Ce26    10.001   .     S
V10     Ce25    10.001   1_565     S
V11     V15    9.997   1_554     S
V11     Ce27    10.001   .     S
V11     Ce28    10.001   .     S
V12     V16    9.997   1_554     S
V12     Ce28    10.001   .     S
V12     Ce27    10.001   1_565     S
V13     Ce29    10.001   .     S
V13     Ce30    10.001   .     S
V13     V9    9.997   1_556     S
V14     Ce30    10.001   .     S
V14     Ce29    10.001   1_565     S
V14     V10    9.997   1_556     S
V15     Ce31    10.001   .     S
V15     Ce32    10.001   .     S
V15     V11    9.997   1_556     S
V16     Ce32    10.001   .     S
V16     Ce31    10.001   1_565     S
V16     V12    9.997   1_556     S
Er17     Ce25    10.0   .     S
Er17     Ce26    10.0   .     S
Er17     Ti21    9.997   .     S
Er18     Ce26    10.0   .     S
Er18     Ce25    10.0   1_565     S
Er18     Ti22    9.997   .     S
Er19     Ce27    10.0   .     S
Er19     Ce28    10.0   .     S
Er19     Ti23    9.997   .     S
Er20     Ce28    10.0   .     S
Er20     Ce27    10.0   1_565     S
Er20     Ti24    9.997   .     S
Ti21     S37    10.001   .     S
Ti21     S38    10.001   .     S
Ti22     S38    10.001   .     S
Ti22     S37    10.001   1_565     S
Ti23     S39    10.001   .     S
Ti23     S40    10.001   .     S
Ti24     S40    10.001   .     S
Ti24     S39    10.001   1_565     S
Ce25     V10    10.001   1_545     S
Ce25     Er18    10.0   1_545     S
Ce27     V12    10.001   1_545     S
Ce27     Er20    10.0   1_545     S
Ce29     V14    10.001   1_545     S
Ce29     Er2    10.0   1_545     S
Ce31     V16    10.001   1_545     S
Ce31     Er4    10.0   1_545     S
S33     Ti57    10.001   .     S
S33     Ti59    10.001   1_455     S
S33     Ti6    10.001   1_545     S
S34     Ti58    10.001   .     S
S34     Ti60    10.001   1_455     S
S35     Ti59    10.001   .     S
S35     Ti57    10.001   .     S
S35     Ti8    10.001   1_545     S
S36     Ti60    10.001   .     S
S36     Ti58    10.001   .     S
S37     Ti45    10.001   .     S
S37     Ti22    10.001   1_545     S
S37     Ti47    10.001   1_455     S
S38     Ti46    10.001   .     S
S38     Ti48    10.001   1_455     S
S39     Ti47    10.001   .     S
S39     Ti24    10.001   1_545     S
S39     Ti45    10.001   .     S
S40     Ti48    10.001   .     S
S40     Ti46    10.001   .     S
Er41     Ce69    10.0   .     S
Er41     Ce71    10.0   .     S
Er41     Ti45    9.997   .     S
Er42     Ce70    10.0   .     S
Er42     Ce72    10.0   .     S
Er42     Ti46    9.997   .     S
Er43     Ce71    10.0   .     S
Er43     Ce69    10.0   1_655     S
Er43     Ti47    9.997   .     S
Er44     Ce72    10.0   .     S
Er44     Ce70    10.0   1_655     S
Er44     Ti48    9.997   .     S
Ti47     S37    10.001   1_655     S
Ti48     S38    10.001   1_655     S
V49     Ce69    10.001   .     S
V49     Ce71    10.001   .     S
V49     V53    9.997   .     S
V50     Ce70    10.001   .     S
V50     Ce72    10.001   .     S
V50     V54    9.997   .     S
V51     Ce71    10.001   .     S
V51     Ce69    10.001   1_655     S
V51     V55    9.997   .     S
V52     Ce72    10.001   .     S
V52     Ce70    10.001   1_655     S
V52     V56    9.997   .     S
V53     Ce65    10.001   .     S
V53     Ce67    10.001   .     S
V54     Ce66    10.001   .     S
V54     Ce68    10.001   .     S
V55     Ce67    10.001   .     S
V55     Ce65    10.001   1_655     S
V56     Ce68    10.001   .     S
V56     Ce66    10.001   1_655     S
Ti57     Er61    9.997   .     S
Ti58     Er62    9.997   .     S
Ti59     S33    10.001   1_655     S
Ti59     Er63    9.997   .     S
Ti60     S34    10.001   1_655     S
Ti60     Er64    9.997   .     S
Er61     Ce65    10.0   .     S
Er61     Ce67    10.0   .     S
Er62     Ce66    10.0   .     S
Er62     Ce68    10.0   .     S
Er63     Ce67    10.0   .     S
Er63     Ce65    10.0   1_655     S
Er64     Ce68    10.0   .     S
Er64     Ce66    10.0   1_655     S
Ce65     V55    10.001   1_455     S
Ce65     Er63    10.0   1_455     S
Ce66     V56    10.001   1_455     S
Ce66     Er64    10.0   1_455     S
Ce69     V51    10.001   1_455     S
Ce69     Er43    10.0   1_455     S
Ce70     V52    10.001   1_455     S
Ce70     Er44    10.0   1_455     S
