data_nkq
_audit_creation_date              2019-12-31
_audit_creation_method            'Pymatgen'
_symmetry_space_group_name_H-M    'P1'
_symmetry_Int_Tables_number       1
loop_
_symmetry_equiv_pos_as_xyz
  x,y,z
_cell_length_a                    23.9269
_cell_length_b                    46.1156
_cell_length_c                    37.158
_cell_angle_alpha                 90.0
_cell_angle_beta                 90.0
_cell_angle_gamma                 90.0
loop_
_atom_site_label
_atom_site_type_symbol
_atom_site_fract_x
_atom_site_fract_y
_atom_site_fract_z
Er1     Er     0.291   0.3444   0.25
Er2     Er     0.291   0.3444   0.75
Er3     Er     0.291   0.6556   0.25
Er4     Er     0.291   0.6556   0.75
Er5     Er     0.709   0.6556   0.25
Er6     Er     0.709   0.6556   0.75
Ti7     Ti     0.0   0.5   0.25
Ti8     Ti     0.0   0.5   0.75
Er9     Er     0.709   0.3444   0.25
Er10     Er     0.709   0.3444   0.75
Ce11     Ce     0.0   0.1888   0.25
Ce12     Ce     0.0   0.1888   0.75
Ce13     Ce     0.0   0.8112   0.25
Ce14     Ce     0.0   0.8112   0.75
V15     V     0.0   0.1084   0.0
V16     V     0.0   0.1084   0.5
V17     V     0.0   0.8916   0.0
V18     V     0.0   0.8916   0.5
loop_
_geom_bond_atom_site_label_1
_geom_bond_atom_site_label_2
_geom_bond_distance
_geom_bond_site_symmetry_2
_ccdc_geom_bond_type
Er1     Ti7    9.999   .     S
Er1     Ce11    10.0   .     S
Er1     Er9    10.0   .     S
Er2     Ti8    9.999   .     S
Er2     Ce12    10.0   .     S
Er2     Er10    10.0   .     S
Er3     Ti7    9.999   .     S
Er3     Ce13    10.0   .     S
Er3     Er5    10.0   .     S
Er4     Ti8    9.999   .     S
Er4     Ce14    10.0   .     S
Er4     Er6    10.0   .     S
Er5     Ti7    9.999   1_655     S
Er5     Ce13    10.0   1_655     S
Er6     Ti8    9.999   1_655     S
Er6     Ce14    10.0   1_655     S
Ti7     Er5    9.999   1_455     S
Ti7     Er9    9.999   1_455     S
Ti8     Er6    9.999   1_455     S
Ti8     Er10    9.999   1_455     S
Er9     Ti7    9.999   1_655     S
Er9     Ce11    10.0   1_655     S
Er10     Ti8    9.999   1_655     S
Er10     Ce12    10.0   1_655     S
Ce11     Er9    10.0   1_455     S
Ce11     V15    10.001   .     S
Ce11     V16    10.001   .     S
Ce12     Er10    10.0   1_455     S
Ce12     V16    10.001   .     S
Ce12     V15    10.001   1_556     S
Ce13     Er5    10.0   1_455     S
Ce13     V17    10.001   .     S
Ce13     V18    10.001   .     S
Ce14     Er6    10.0   1_455     S
Ce14     V18    10.001   .     S
Ce14     V17    10.001   1_556     S
V15     V17    10.001   1_545     S
V15     Ce12    10.001   1_554     S
V16     V18    10.001   1_545     S
V17     V15    10.001   1_565     S
V17     Ce14    10.001   1_554     S
V18     V16    10.001   1_565     S
