data_nlr
_audit_creation_date              2019-12-31
_audit_creation_method            'Pymatgen'
_symmetry_space_group_name_H-M    'P1'
_symmetry_Int_Tables_number       1
loop_
_symmetry_equiv_pos_as_xyz
  x,y,z
_cell_length_a                    60.3059
_cell_length_b                    60.3059
_cell_length_c                    29.4741
_cell_angle_alpha                 90.0
_cell_angle_beta                 90.0
_cell_angle_gamma                 120.0
loop_
_atom_site_label
_atom_site_type_symbol
_atom_site_fract_x
_atom_site_fract_y
_atom_site_fract_z
V1     V     0.2504   0.3333   0.1111
V2     V     0.2504   0.3333   0.4444
V3     V     0.2504   0.3333   0.7778
V4     V     0.3333   0.2504   0.2222
V5     V     0.3333   0.2504   0.5556
V6     V     0.3333   0.2504   0.8889
V7     V     0.4163   0.4163   0.0
V8     V     0.4163   0.4163   0.3333
V9     V     0.4163   0.4163   0.6667
V10     V     0.5837   0.0   0.0
V11     V     0.5837   0.0   0.3333
V12     V     0.5837   0.0   0.6667
V13     V     0.7496   0.083   0.2222
V14     V     0.7496   0.083   0.5556
V15     V     0.7496   0.083   0.8889
V16     V     0.6667   0.917   0.1111
V17     V     0.6667   0.917   0.4444
V18     V     0.6667   0.917   0.7778
V19     V     0.0   0.4163   0.0
V20     V     0.0   0.4163   0.3333
V21     V     0.0   0.4163   0.6667
V22     V     0.917   0.2504   0.2222
V23     V     0.917   0.2504   0.5556
V24     V     0.917   0.2504   0.8889
V25     V     0.083   0.3333   0.1111
V26     V     0.083   0.3333   0.4444
V27     V     0.083   0.3333   0.7778
V28     V     0.4163   0.0   0.0
V29     V     0.4163   0.0   0.3333
V30     V     0.4163   0.0   0.6667
V31     V     0.2504   0.917   0.1111
V32     V     0.2504   0.917   0.4444
V33     V     0.2504   0.917   0.7778
V34     V     0.3333   0.083   0.2222
V35     V     0.3333   0.083   0.5556
V36     V     0.3333   0.083   0.8889
V37     V     0.0   0.5837   0.0
V38     V     0.0   0.5837   0.3333
V39     V     0.0   0.5837   0.6667
V40     V     0.083   0.7496   0.1111
V41     V     0.083   0.7496   0.4444
V42     V     0.083   0.7496   0.7778
V43     V     0.917   0.6667   0.2222
V44     V     0.917   0.6667   0.5556
V45     V     0.917   0.6667   0.8889
V46     V     0.7496   0.6667   0.2222
V47     V     0.7496   0.6667   0.5556
V48     V     0.7496   0.6667   0.8889
V49     V     0.6667   0.7496   0.1111
V50     V     0.6667   0.7496   0.4444
V51     V     0.6667   0.7496   0.7778
V52     V     0.5837   0.5837   0.0
V53     V     0.5837   0.5837   0.3333
V54     V     0.5837   0.5837   0.6667
loop_
_geom_bond_atom_site_label_1
_geom_bond_atom_site_label_2
_geom_bond_distance
_geom_bond_site_symmetry_2
_ccdc_geom_bond_type
V1     V2    9.825   .     S
V1     V3    9.825   1_554     S
V1     V25    10.094   .     S
V1     V6    10.864   1_554     S
V1     V8    10.864   .     S
V1     V4    9.265   .     S
V1     V7    9.265   .     S
V2     V3    9.825   .     S
V2     V26    10.094   .     S
V2     V4    10.864   .     S
V2     V9    10.864   .     S
V2     V5    9.265   .     S
V2     V8    9.265   .     S
V3     V1    9.825   1_556     S
V3     V27    10.094   .     S
V3     V5    10.864   .     S
V3     V7    10.864   1_556     S
V3     V6    9.265   .     S
V3     V9    9.265   .     S
V4     V6    9.825   1_554     S
V4     V5    9.825   .     S
V4     V34    10.094   .     S
V4     V7    10.864   .     S
V4     V8    9.265   .     S
V5     V6    9.825   .     S
V5     V35    10.094   .     S
V5     V8    10.864   .     S
V5     V9    9.265   .     S
V6     V4    9.825   1_556     S
V6     V36    10.094   .     S
V6     V1    10.864   1_556     S
V6     V9    10.864   .     S
V6     V7    9.265   1_556     S
V7     V8    9.825   .     S
V7     V9    9.825   1_554     S
V7     V52    10.094   .     S
V7     V3    10.864   1_554     S
V7     V6    9.265   1_554     S
V8     V9    9.825   .     S
V8     V53    10.094   .     S
V9     V7    9.825   1_556     S
V9     V54    10.094   .     S
V10     V11    9.825   .     S
V10     V12    9.825   1_554     S
V10     V28    10.094   .     S
V10     V18    10.864   1_544     S
V10     V13    10.864   .     S
V10     V16    9.265   1_545     S
V10     V15    9.265   1_554     S
V11     V12    9.825   .     S
V11     V29    10.094   .     S
V11     V16    10.864   1_545     S
V11     V14    10.864   .     S
V11     V17    9.265   1_545     S
V11     V13    9.265   .     S
V12     V10    9.825   1_556     S
V12     V30    10.094   .     S
V12     V17    10.864   1_545     S
V12     V15    10.864   .     S
V12     V18    9.265   1_545     S
V12     V14    9.265   .     S
V13     V15    9.825   1_554     S
V13     V14    9.825   .     S
V13     V22    10.094   .     S
V13     V17    10.864   1_545     S
V13     V16    9.265   1_545     S
V14     V15    9.825   .     S
V14     V23    10.094   .     S
V14     V18    10.864   1_545     S
V14     V17    9.265   1_545     S
V15     V13    9.825   1_556     S
V15     V24    10.094   .     S
V15     V16    10.864   1_546     S
V15     V18    9.265   1_545     S
V15     V10    9.265   1_556     S
V16     V17    9.825   .     S
V16     V18    9.825   1_554     S
V16     V49    10.094   .     S
V16     V15    10.864   1_564     S
V16     V11    10.864   1_565     S
V16     V13    9.265   1_565     S
V16     V10    9.265   1_565     S
V17     V18    9.825   .     S
V17     V50    10.094   .     S
V17     V13    10.864   1_565     S
V17     V12    10.864   1_565     S
V17     V14    9.265   1_565     S
V17     V11    9.265   1_565     S
V18     V16    9.825   1_556     S
V18     V51    10.094   .     S
V18     V14    10.864   1_565     S
V18     V10    10.864   1_566     S
V18     V15    9.265   1_565     S
V18     V12    9.265   1_565     S
V19     V20    9.825   .     S
V19     V21    9.825   1_554     S
V19     V37    10.094   .     S
V19     V27    10.864   1_554     S
V19     V22    10.864   1_455     S
V19     V25    9.265   .     S
V19     V24    9.265   1_454     S
V20     V21    9.825   .     S
V20     V38    10.094   .     S
V20     V25    10.864   .     S
V20     V23    10.864   1_455     S
V20     V26    9.265   .     S
V20     V22    9.265   1_455     S
V21     V19    9.825   1_556     S
V21     V39    10.094   .     S
V21     V26    10.864   .     S
V21     V24    10.864   1_455     S
V21     V27    9.265   .     S
V21     V23    9.265   1_455     S
V22     V24    9.825   1_554     S
V22     V23    9.825   .     S
V22     V26    10.864   1_655     S
V22     V19    10.864   1_655     S
V22     V25    9.265   1_655     S
V22     V20    9.265   1_655     S
V23     V24    9.825   .     S
V23     V27    10.864   1_655     S
V23     V20    10.864   1_655     S
V23     V26    9.265   1_655     S
V23     V21    9.265   1_655     S
V24     V22    9.825   1_556     S
V24     V25    10.864   1_656     S
V24     V21    10.864   1_655     S
V24     V27    9.265   1_655     S
V24     V19    9.265   1_656     S
V25     V26    9.825   .     S
V25     V27    9.825   1_554     S
V25     V24    10.864   1_454     S
V25     V22    9.265   1_455     S
V26     V27    9.825   .     S
V26     V22    10.864   1_455     S
V26     V23    9.265   1_455     S
V27     V25    9.825   1_556     S
V27     V23    10.864   1_455     S
V27     V19    10.864   1_556     S
V27     V24    9.265   1_455     S
V28     V29    9.825   .     S
V28     V30    9.825   1_554     S
V28     V34    10.864   .     S
V28     V33    10.864   1_544     S
V28     V36    9.265   1_554     S
V28     V31    9.265   1_545     S
V29     V30    9.825   .     S
V29     V35    10.864   .     S
V29     V31    10.864   1_545     S
V29     V34    9.265   .     S
V29     V32    9.265   1_545     S
V30     V28    9.825   1_556     S
V30     V36    10.864   .     S
V30     V32    10.864   1_545     S
V30     V35    9.265   .     S
V30     V33    9.265   1_545     S
V31     V32    9.825   .     S
V31     V33    9.825   1_554     S
V31     V40    10.094   .     S
V31     V36    10.864   1_564     S
V31     V29    10.864   1_565     S
V31     V34    9.265   1_565     S
V31     V28    9.265   1_565     S
V32     V33    9.825   .     S
V32     V41    10.094   .     S
V32     V34    10.864   1_565     S
V32     V30    10.864   1_565     S
V32     V35    9.265   1_565     S
V32     V29    9.265   1_565     S
V33     V31    9.825   1_556     S
V33     V42    10.094   .     S
V33     V35    10.864   1_565     S
V33     V28    10.864   1_566     S
V33     V36    9.265   1_565     S
V33     V30    9.265   1_565     S
V34     V36    9.825   1_554     S
V34     V35    9.825   .     S
V34     V32    10.864   1_545     S
V34     V31    9.265   1_545     S
V35     V36    9.825   .     S
V35     V33    10.864   1_545     S
V35     V32    9.265   1_545     S
V36     V34    9.825   1_556     S
V36     V31    10.864   1_546     S
V36     V33    9.265   1_545     S
V36     V28    9.265   1_556     S
V37     V38    9.825   .     S
V37     V39    9.825   1_554     S
V37     V42    10.864   1_554     S
V37     V43    10.864   1_455     S
V37     V40    9.265   .     S
V37     V45    9.265   1_454     S
V38     V39    9.825   .     S
V38     V40    10.864   .     S
V38     V44    10.864   1_455     S
V38     V41    9.265   .     S
V38     V43    9.265   1_455     S
V39     V37    9.825   1_556     S
V39     V41    10.864   .     S
V39     V45    10.864   1_455     S
V39     V42    9.265   .     S
V39     V44    9.265   1_455     S
V40     V41    9.825   .     S
V40     V42    9.825   1_554     S
V40     V45    10.864   1_454     S
V40     V43    9.265   1_455     S
V41     V42    9.825   .     S
V41     V43    10.864   1_455     S
V41     V44    9.265   1_455     S
V42     V40    9.825   1_556     S
V42     V44    10.864   1_455     S
V42     V37    10.864   1_556     S
V42     V45    9.265   1_455     S
V43     V45    9.825   1_554     S
V43     V44    9.825   .     S
V43     V46    10.094   .     S
V43     V41    10.864   1_655     S
V43     V37    10.864   1_655     S
V43     V40    9.265   1_655     S
V43     V38    9.265   1_655     S
V44     V45    9.825   .     S
V44     V47    10.094   .     S
V44     V42    10.864   1_655     S
V44     V38    10.864   1_655     S
V44     V41    9.265   1_655     S
V44     V39    9.265   1_655     S
V45     V43    9.825   1_556     S
V45     V48    10.094   .     S
V45     V40    10.864   1_656     S
V45     V39    10.864   1_655     S
V45     V42    9.265   1_655     S
V45     V37    9.265   1_656     S
V46     V48    9.825   1_554     S
V46     V47    9.825   .     S
V46     V50    10.864   .     S
V46     V52    10.864   .     S
V46     V49    9.265   .     S
V46     V53    9.265   .     S
V47     V48    9.825   .     S
V47     V51    10.864   .     S
V47     V53    10.864   .     S
V47     V50    9.265   .     S
V47     V54    9.265   .     S
V48     V46    9.825   1_556     S
V48     V49    10.864   1_556     S
V48     V54    10.864   .     S
V48     V51    9.265   .     S
V48     V52    9.265   1_556     S
V49     V50    9.825   .     S
V49     V51    9.825   1_554     S
V49     V48    10.864   1_554     S
V49     V53    10.864   .     S
V49     V52    9.265   .     S
V50     V51    9.825   .     S
V50     V54    10.864   .     S
V50     V53    9.265   .     S
V51     V49    9.825   1_556     S
V51     V52    10.864   1_556     S
V51     V54    9.265   .     S
V52     V53    9.825   .     S
V52     V54    9.825   1_554     S
V52     V51    10.864   1_554     S
V52     V48    9.265   1_554     S
V53     V54    9.825   .     S
V54     V52    9.825   1_556     S
