data_nog
_audit_creation_date              2019-12-31
_audit_creation_method            'Pymatgen'
_symmetry_space_group_name_H-M    'P1'
_symmetry_Int_Tables_number       1
loop_
_symmetry_equiv_pos_as_xyz
  x,y,z
_cell_length_a                    40.4699
_cell_length_b                    33.628
_cell_length_c                    42.9758
_cell_angle_alpha                 90.0
_cell_angle_beta                 90.3807
_cell_angle_gamma                 90.0
loop_
_atom_site_label
_atom_site_type_symbol
_atom_site_fract_x
_atom_site_fract_y
_atom_site_fract_z
V1     V     0.2837   0.4916   0.8046
V2     V     0.2837   0.9916   0.8046
Ce3     Ce     0.1793   0.3525   0.9846
Ce4     Ce     0.1793   0.8525   0.9846
V5     V     0.2163   0.2416   0.6954
V6     V     0.2163   0.7416   0.6954
Ce7     Ce     0.3207   0.1025   0.5154
Ce8     Ce     0.3207   0.6025   0.5154
Er9     Er     0.5203   0.3522   0.2658
Er10     Er     0.5203   0.8522   0.2658
Ti11     Ti     0.529   0.1022   0.3916
Ti12     Ti     0.529   0.6022   0.3916
S13     S     0.2841   0.3518   0.196
S14     S     0.2841   0.8518   0.196
S15     S     0.2159   0.1018   0.304
S16     S     0.2159   0.6018   0.304
Er17     Er     0.9797   0.1022   0.2342
Er18     Er     0.9797   0.6022   0.2342
Ti19     Ti     0.971   0.3522   0.1084
Ti20     Ti     0.971   0.8522   0.1084
V21     V     0.7163   0.0084   0.1954
V22     V     0.7163   0.5084   0.1954
Ce23     Ce     0.8207   0.1475   0.0154
Ce24     Ce     0.8207   0.6475   0.0154
V25     V     0.7837   0.2584   0.3046
V26     V     0.7837   0.7584   0.3046
Ce27     Ce     0.6793   0.3975   0.4846
Ce28     Ce     0.6793   0.8975   0.4846
Er29     Er     0.0203   0.3978   0.7658
Er30     Er     0.0203   0.8978   0.7658
Ti31     Ti     0.029   0.1478   0.8916
Ti32     Ti     0.029   0.6478   0.8916
S33     S     0.7841   0.3982   0.696
S34     S     0.7841   0.8982   0.696
S35     S     0.7159   0.1482   0.804
S36     S     0.7159   0.6482   0.804
Er37     Er     0.4797   0.1478   0.7342
Er38     Er     0.4797   0.6478   0.7342
Ti39     Ti     0.471   0.3978   0.6084
Ti40     Ti     0.471   0.8978   0.6084
loop_
_geom_bond_atom_site_label_1
_geom_bond_atom_site_label_2
_geom_bond_distance
_geom_bond_site_symmetry_2
_ccdc_geom_bond_type
V1     Er38    10.0   .     S
V1     Ce3    10.0   .     S
V1     V6    10.0   .     S
V1     V5    10.0   .     S
V2     Er37    10.0   1_565     S
V2     Ce4    10.0   .     S
V2     V5    10.0   1_565     S
V2     V6    10.0   .     S
Ce3     Ti19    10.0   1_456     S
Ce3     S13    10.0   1_556     S
Ce3     Ti31    10.0   .     S
Ce4     Ti20    10.0   1_456     S
Ce4     S14    10.0   1_556     S
Ce4     Ti32    10.0   .     S
V5     Er29    10.0   .     S
V5     Ce7    10.0   .     S
V5     V2    10.0   1_545     S
V6     Er30    10.0   .     S
V6     Ce8    10.0   .     S
Ce7     Ti11    10.0   .     S
Ce7     S15    10.0   .     S
Ce7     Ti40    10.0   1_545     S
Ce8     Ti12    10.0   .     S
Ce8     S16    10.0   .     S
Ce8     Ti39    10.0   .     S
Er9     Ti11    10.0   .     S
Er9     Ti12    10.0   .     S
Er9     S13    10.0   .     S
Er9     V22    10.0   .     S
Er10     Ti12    10.0   .     S
Er10     Ti11    10.0   1_565     S
Er10     S14    10.0   .     S
Er10     V21    10.0   1_565     S
Ti11     Er10    10.0   1_545     S
Ti11     Ce28    10.0   1_545     S
Ti12     Ce27    10.0   .     S
S13     S15    10.0   .     S
S13     S16    10.0   .     S
S13     Ce3    10.0   1_554     S
S14     S16    10.0   .     S
S14     S15    10.0   1_565     S
S14     Ce4    10.0   1_554     S
S15     S14    10.0   1_545     S
S15     Er17    10.0   1_455     S
S16     Er18    10.0   1_455     S
Er17     Ti20    10.0   1_545     S
Er17     Ti19    10.0   .     S
Er17     S15    10.0   1_655     S
Er17     V25    10.0   .     S
Er18     Ti19    10.0   .     S
Er18     Ti20    10.0   .     S
Er18     S16    10.0   1_655     S
Er18     V26    10.0   .     S
Ti19     Ce23    10.0   .     S
Ti19     Ce3    10.0   1_654     S
Ti20     Er17    10.0   1_565     S
Ti20     Ce24    10.0   .     S
Ti20     Ce4    10.0   1_654     S
V21     Er10    10.0   1_545     S
V21     Ce23    10.0   .     S
V21     V25    10.0   .     S
V21     V26    10.0   1_545     S
V22     Ce24    10.0   .     S
V22     V26    10.0   .     S
V22     V25    10.0   .     S
Ce23     Ti31    10.0   1_654     S
Ce23     S35    10.0   1_554     S
Ce24     Ti32    10.0   1_654     S
Ce24     S36    10.0   1_554     S
V25     Ce27    10.0   .     S
V26     Ce28    10.0   .     S
V26     V21    10.0   1_565     S
Ce27     Ti39    10.0   .     S
Ce27     S33    10.0   .     S
Ce28     Ti11    10.0   1_565     S
Ce28     Ti40    10.0   .     S
Ce28     S34    10.0   .     S
Er29     Ti32    10.0   .     S
Er29     Ti31    10.0   .     S
Er29     S33    10.0   1_455     S
Er30     Ti31    10.0   1_565     S
Er30     Ti32    10.0   .     S
Er30     S34    10.0   1_455     S
Ti31     Er30    10.0   1_545     S
Ti31     Ce23    10.0   1_456     S
Ti32     Ce24    10.0   1_456     S
S33     S36    10.0   .     S
S33     S35    10.0   .     S
S33     Er29    10.0   1_655     S
S34     S35    10.0   1_565     S
S34     S36    10.0   .     S
S34     Er30    10.0   1_655     S
S35     S34    10.0   1_545     S
S35     Er37    10.0   .     S
S35     Ce23    10.0   1_556     S
S36     Er38    10.0   .     S
S36     Ce24    10.0   1_556     S
Er37     V2    10.0   1_545     S
Er37     Ti40    10.0   1_545     S
Er37     Ti39    10.0   .     S
Er38     Ti39    10.0   .     S
Er38     Ti40    10.0   .     S
Ti40     Er37    10.0   1_565     S
Ti40     Ce7    10.0   1_565     S
