data_not
_audit_creation_date              2019-12-31
_audit_creation_method            'Pymatgen'
_symmetry_space_group_name_H-M    'P1'
_symmetry_Int_Tables_number       1
loop_
_symmetry_equiv_pos_as_xyz
  x,y,z
_cell_length_a                    21.4852
_cell_length_b                    34.8865
_cell_length_c                    39.8996
_cell_angle_alpha                 90.0
_cell_angle_beta                 103.89
_cell_angle_gamma                 90.0
loop_
_atom_site_label
_atom_site_type_symbol
_atom_site_fract_x
_atom_site_fract_y
_atom_site_fract_z
Ti1     Ti     0.5616   0.4608   0.3918
Ti2     Ti     0.5616   0.4608   0.8918
V3     V     0.9864   0.4046   0.3415
V4     V     0.9864   0.4046   0.8415
Er5     Er     0.2846   0.3028   0.2051
Er6     Er     0.2846   0.3028   0.7051
Ti7     Ti     0.4384   0.5392   0.1082
Ti8     Ti     0.4384   0.5392   0.6082
V9     V     0.0135   0.5954   0.1585
V10     V     0.0135   0.5954   0.6585
Er11     Er     0.7154   0.6972   0.2949
Er12     Er     0.7154   0.6972   0.7949
Ti13     Ti     0.4384   0.9608   0.3582
Ti14     Ti     0.4384   0.9608   0.8582
V15     V     0.0135   0.9046   0.4085
V16     V     0.0135   0.9046   0.9085
Er17     Er     0.7154   0.8028   0.0449
Er18     Er     0.7154   0.8028   0.5449
Ti19     Ti     0.5616   0.0392   0.1418
Ti20     Ti     0.5616   0.0392   0.6418
V21     V     0.9864   0.0954   0.0915
V22     V     0.9864   0.0954   0.5915
Er23     Er     0.2846   0.1972   0.4551
Er24     Er     0.2846   0.1972   0.9551
loop_
_geom_bond_atom_site_label_1
_geom_bond_atom_site_label_2
_geom_bond_distance
_geom_bond_site_symmetry_2
_ccdc_geom_bond_type
Ti1     Er11    10.0   .     S
Ti1     V3    10.0   .     S
Ti1     Er5    10.0   .     S
Ti1     Ti8    10.0   .     S
Ti2     Er12    10.0   .     S
Ti2     V4    10.0   .     S
Ti2     Er6    10.0   .     S
Ti2     Ti7    10.0   1_556     S
V3     Er23    10.0   1_655     S
V3     Er5    10.0   1_655     S
V3     V9    10.0   1_655     S
V4     Er24    10.0   1_655     S
V4     Er6    10.0   1_655     S
V4     V10    10.0   1_655     S
Er5     V3    10.0   1_455     S
Er5     Ti7    10.0   .     S
Er5     V21    10.0   1_455     S
Er6     V4    10.0   1_455     S
Er6     Ti8    10.0   .     S
Er6     V22    10.0   1_455     S
Ti7     V9    10.0   .     S
Ti7     Er11    10.0   .     S
Ti7     Ti2    10.0   1_554     S
Ti8     V10    10.0   .     S
Ti8     Er12    10.0   .     S
V9     Er17    10.0   1_455     S
V9     Er11    10.0   1_455     S
V9     V3    10.0   1_455     S
V10     Er18    10.0   1_455     S
V10     Er12    10.0   1_455     S
V10     V4    10.0   1_455     S
Er11     V9    10.0   1_655     S
Er11     V15    10.0   1_655     S
Er12     V10    10.0   1_655     S
Er12     V16    10.0   1_655     S
Ti13     Er23    10.0   1_565     S
Ti13     V15    10.0   .     S
Ti13     Er18    10.0   .     S
Ti13     Ti19    10.0   1_565     S
Ti14     Er24    10.0   1_565     S
Ti14     V16    10.0   .     S
Ti14     Er17    10.0   1_556     S
Ti14     Ti20    10.0   1_565     S
V15     Er11    10.0   1_455     S
V15     Er18    10.0   1_455     S
V15     V22    10.0   1_465     S
V16     Er12    10.0   1_455     S
V16     Er17    10.0   1_456     S
V16     V21    10.0   1_466     S
Er17     V9    10.0   1_655     S
Er17     Ti14    10.0   1_554     S
Er17     V16    10.0   1_654     S
Er17     Ti19    10.0   1_565     S
Er18     V10    10.0   1_655     S
Er18     V15    10.0   1_655     S
Er18     Ti20    10.0   1_565     S
Ti19     Er17    10.0   1_545     S
Ti19     V21    10.0   .     S
Ti19     Er24    10.0   1_554     S
Ti19     Ti13    10.0   1_545     S
Ti20     Er18    10.0   1_545     S
Ti20     V22    10.0   .     S
Ti20     Er23    10.0   .     S
Ti20     Ti14    10.0   1_545     S
V21     Er5    10.0   1_655     S
V21     Er24    10.0   1_654     S
V21     V16    10.0   1_644     S
V22     Er6    10.0   1_655     S
V22     Er23    10.0   1_655     S
V22     V15    10.0   1_645     S
Er23     V3    10.0   1_455     S
Er23     Ti13    10.0   1_545     S
Er23     V22    10.0   1_455     S
Er24     V4    10.0   1_455     S
Er24     Ti14    10.0   1_545     S
Er24     Ti19    10.0   1_556     S
Er24     V21    10.0   1_456     S
