data_nou
_audit_creation_date              2019-12-31
_audit_creation_method            'Pymatgen'
_symmetry_space_group_name_H-M    'P1'
_symmetry_Int_Tables_number       1
loop_
_symmetry_equiv_pos_as_xyz
  x,y,z
_cell_length_a                    25.8638
_cell_length_b                    25.8638
_cell_length_c                    34.4148
_cell_angle_alpha                 90.0
_cell_angle_beta                 90.0
_cell_angle_gamma                 90.0
loop_
_atom_site_label
_atom_site_type_symbol
_atom_site_fract_x
_atom_site_fract_y
_atom_site_fract_z
V1     V     0.5   0.5   0.0
V2     V     0.5   0.5   0.5
Ti3     Ti     0.3607   0.1393   0.0
Ti4     Ti     0.3607   0.1393   0.5
Er5     Er     0.5   0.0   0.25
Er6     Er     0.5   0.0   0.75
Ti7     Ti     0.6393   0.8607   0.0
Ti8     Ti     0.6393   0.8607   0.5
Ti9     Ti     0.1393   0.6393   0.0
Ti10     Ti     0.1393   0.6393   0.5
Er11     Er     0.0   0.5   0.25
Er12     Er     0.0   0.5   0.75
Ti13     Ti     0.8607   0.3607   0.0
Ti14     Ti     0.8607   0.3607   0.5
V15     V     0.0   0.0   0.0
V16     V     0.0   0.0   0.5
loop_
_geom_bond_atom_site_label_1
_geom_bond_atom_site_label_2
_geom_bond_distance
_geom_bond_site_symmetry_2
_ccdc_geom_bond_type
V1     Ti7    10.0   .     S
V1     Ti13    10.0   .     S
V1     Ti9    10.0   .     S
V1     Ti3    10.0   .     S
V2     Ti8    10.0   .     S
V2     Ti14    10.0   .     S
V2     Ti10    10.0   .     S
V2     Ti4    10.0   .     S
Ti3     Er5    10.0   .     S
Ti3     Er6    10.0   1_554     S
Ti3     V15    10.0   .     S
Ti4     Er6    10.0   .     S
Ti4     Er5    10.0   .     S
Ti4     V16    10.0   .     S
Er5     Ti7    10.0   1_545     S
Er5     Ti8    10.0   1_545     S
Er6     Ti8    10.0   1_545     S
Er6     Ti7    10.0   1_546     S
Er6     Ti3    10.0   1_556     S
Ti7     Er5    10.0   1_565     S
Ti7     Er6    10.0   1_564     S
Ti7     V15    10.0   1_665     S
Ti8     Er6    10.0   1_565     S
Ti8     Er5    10.0   1_565     S
Ti8     V16    10.0   1_665     S
Ti9     Er11    10.0   .     S
Ti9     Er12    10.0   1_554     S
Ti9     V15    10.0   1_565     S
Ti10     Er12    10.0   .     S
Ti10     Er11    10.0   .     S
Ti10     V16    10.0   1_565     S
Er11     Ti13    10.0   1_455     S
Er11     Ti14    10.0   1_455     S
Er12     Ti9    10.0   1_556     S
Er12     Ti14    10.0   1_455     S
Er12     Ti13    10.0   1_456     S
Ti13     Er11    10.0   1_655     S
Ti13     Er12    10.0   1_654     S
Ti13     V15    10.0   1_655     S
Ti14     Er12    10.0   1_655     S
Ti14     Er11    10.0   1_655     S
Ti14     V16    10.0   1_655     S
V15     Ti13    10.0   1_455     S
V15     Ti9    10.0   1_545     S
V15     Ti7    10.0   1_445     S
V16     Ti14    10.0   1_455     S
V16     Ti10    10.0   1_545     S
V16     Ti8    10.0   1_445     S
