data_nov
_audit_creation_date              2019-12-31
_audit_creation_method            'Pymatgen'
_symmetry_space_group_name_H-M    'P1'
_symmetry_Int_Tables_number       1
loop_
_symmetry_equiv_pos_as_xyz
  x,y,z
_cell_length_a                    37.871
_cell_length_b                    29.613
_cell_length_c                    31.95
_cell_angle_alpha                 90.0
_cell_angle_beta                 90.0
_cell_angle_gamma                 90.0
loop_
_atom_site_label
_atom_site_type_symbol
_atom_site_fract_x
_atom_site_fract_y
_atom_site_fract_z
V1     V     0.25   0.3516   0.4254
V2     V     0.25   0.3516   0.9254
V3     V     0.75   0.3516   0.4254
V4     V     0.75   0.3516   0.9254
V5     V     0.25   0.6484   0.0746
V6     V     0.25   0.6484   0.5746
V7     V     0.75   0.6484   0.0746
V8     V     0.75   0.6484   0.5746
V9     V     0.0   0.3516   0.3246
V10     V     0.0   0.3516   0.8246
V11     V     0.5   0.3516   0.3246
V12     V     0.5   0.3516   0.8246
V13     V     0.0   0.6484   0.1754
V14     V     0.0   0.6484   0.6754
V15     V     0.5   0.6484   0.1754
V16     V     0.5   0.6484   0.6754
V17     V     0.25   0.8516   0.3246
V18     V     0.25   0.8516   0.8246
V19     V     0.75   0.8516   0.3246
V20     V     0.75   0.8516   0.8246
V21     V     0.25   0.1484   0.1754
V22     V     0.25   0.1484   0.6754
V23     V     0.75   0.1484   0.1754
V24     V     0.75   0.1484   0.6754
V25     V     0.0   0.8516   0.4254
V26     V     0.0   0.8516   0.9254
V27     V     0.5   0.8516   0.4254
V28     V     0.5   0.8516   0.9254
V29     V     0.0   0.1484   0.0746
V30     V     0.0   0.1484   0.5746
V31     V     0.5   0.1484   0.0746
V32     V     0.5   0.1484   0.5746
loop_
_geom_bond_atom_site_label_1
_geom_bond_atom_site_label_2
_geom_bond_distance
_geom_bond_site_symmetry_2
_ccdc_geom_bond_type
V1     V6    10.0   .     S
V1     V11    10.0   .     S
V1     V9    10.0   .     S
V1     V21    10.0   .     S
V1     V22    10.0   .     S
V2     V5    10.0   1_556     S
V2     V12    10.0   .     S
V2     V10    10.0   .     S
V2     V22    10.0   .     S
V2     V21    10.0   1_556     S
V3     V8    10.0   .     S
V3     V9    10.0   1_655     S
V3     V11    10.0   .     S
V3     V23    10.0   .     S
V3     V24    10.0   .     S
V4     V7    10.0   1_556     S
V4     V10    10.0   1_655     S
V4     V12    10.0   .     S
V4     V24    10.0   .     S
V4     V23    10.0   1_556     S
V5     V2    10.0   1_554     S
V5     V15    10.0   .     S
V5     V13    10.0   .     S
V5     V17    10.0   .     S
V5     V18    10.0   1_554     S
V6     V16    10.0   .     S
V6     V14    10.0   .     S
V6     V18    10.0   .     S
V6     V17    10.0   .     S
V7     V4    10.0   1_554     S
V7     V13    10.0   1_655     S
V7     V15    10.0   .     S
V7     V19    10.0   .     S
V7     V20    10.0   1_554     S
V8     V14    10.0   1_655     S
V8     V16    10.0   .     S
V8     V20    10.0   .     S
V8     V19    10.0   .     S
V9     V3    10.0   1_455     S
V9     V13    10.0   .     S
V9     V29    10.0   .     S
V9     V30    10.0   .     S
V10     V4    10.0   1_455     S
V10     V14    10.0   .     S
V10     V30    10.0   .     S
V10     V29    10.0   1_556     S
V11     V15    10.0   .     S
V11     V31    10.0   .     S
V11     V32    10.0   .     S
V12     V16    10.0   .     S
V12     V32    10.0   .     S
V12     V31    10.0   1_556     S
V13     V7    10.0   1_455     S
V13     V25    10.0   .     S
V13     V26    10.0   1_554     S
V14     V8    10.0   1_455     S
V14     V26    10.0   .     S
V14     V25    10.0   .     S
V15     V27    10.0   .     S
V15     V28    10.0   1_554     S
V16     V28    10.0   .     S
V16     V27    10.0   .     S
V17     V21    10.0   1_565     S
V17     V27    10.0   .     S
V17     V25    10.0   .     S
V18     V22    10.0   1_565     S
V18     V28    10.0   .     S
V18     V26    10.0   .     S
V18     V5    10.0   1_556     S
V19     V23    10.0   1_565     S
V19     V25    10.0   1_655     S
V19     V27    10.0   .     S
V20     V24    10.0   1_565     S
V20     V26    10.0   1_655     S
V20     V28    10.0   .     S
V20     V7    10.0   1_556     S
V21     V17    10.0   1_545     S
V21     V31    10.0   .     S
V21     V29    10.0   .     S
V21     V2    10.0   1_554     S
V22     V18    10.0   1_545     S
V22     V32    10.0   .     S
V22     V30    10.0   .     S
V23     V19    10.0   1_545     S
V23     V29    10.0   1_655     S
V23     V31    10.0   .     S
V23     V4    10.0   1_554     S
V24     V20    10.0   1_545     S
V24     V30    10.0   1_655     S
V24     V32    10.0   .     S
V25     V19    10.0   1_455     S
V25     V30    10.0   1_565     S
V26     V20    10.0   1_455     S
V26     V29    10.0   1_566     S
V26     V13    10.0   1_556     S
V27     V32    10.0   1_565     S
V28     V31    10.0   1_566     S
V28     V15    10.0   1_556     S
V29     V23    10.0   1_455     S
V29     V26    10.0   1_544     S
V29     V10    10.0   1_554     S
V30     V24    10.0   1_455     S
V30     V25    10.0   1_545     S
V31     V28    10.0   1_544     S
V31     V12    10.0   1_554     S
V32     V27    10.0   1_545     S
