data_noy
_audit_creation_date              2019-12-31
_audit_creation_method            'Pymatgen'
_symmetry_space_group_name_H-M    'P1'
_symmetry_Int_Tables_number       1
loop_
_symmetry_equiv_pos_as_xyz
  x,y,z
_cell_length_a                    29.848
_cell_length_b                    26.4041
_cell_length_c                    26.3698
_cell_angle_alpha                 90.0
_cell_angle_beta                 90.0
_cell_angle_gamma                 90.0
loop_
_atom_site_label
_atom_site_type_symbol
_atom_site_fract_x
_atom_site_fract_y
_atom_site_fract_z
V1     V     0.1675   0.8576   0.125
V2     V     0.1675   0.8576   0.625
V3     V     0.3325   0.6424   0.375
V4     V     0.3325   0.6424   0.875
V5     V     0.3325   0.3576   0.125
V6     V     0.3325   0.3576   0.625
V7     V     0.1675   0.1424   0.375
V8     V     0.1675   0.1424   0.875
V9     V     0.6675   0.3576   0.125
V10     V     0.6675   0.3576   0.625
V11     V     0.8325   0.1424   0.375
V12     V     0.8325   0.1424   0.875
V13     V     0.8325   0.8576   0.125
V14     V     0.8325   0.8576   0.625
V15     V     0.6675   0.6424   0.375
V16     V     0.6675   0.6424   0.875
loop_
_geom_bond_atom_site_label_1
_geom_bond_atom_site_label_2
_geom_bond_distance
_geom_bond_site_symmetry_2
_ccdc_geom_bond_type
V1     V4    10.0   1_554     S
V1     V3    10.0   .     S
V1     V7    10.0   1_565     S
V1     V8    10.0   1_564     S
V1     V13    10.0   1_455     S
V2     V3    10.0   .     S
V2     V4    10.0   .     S
V2     V8    10.0   1_565     S
V2     V7    10.0   1_565     S
V2     V14    10.0   1_455     S
V3     V6    10.0   .     S
V3     V5    10.0   .     S
V3     V15    10.0   .     S
V4     V1    10.0   1_556     S
V4     V5    10.0   1_556     S
V4     V6    10.0   .     S
V4     V16    10.0   .     S
V5     V8    10.0   1_554     S
V5     V7    10.0   .     S
V5     V4    10.0   1_554     S
V5     V9    10.0   .     S
V6     V7    10.0   .     S
V6     V8    10.0   .     S
V6     V10    10.0   .     S
V7     V1    10.0   1_545     S
V7     V2    10.0   1_545     S
V7     V11    10.0   1_455     S
V8     V5    10.0   1_556     S
V8     V2    10.0   1_545     S
V8     V1    10.0   1_546     S
V8     V12    10.0   1_455     S
V9     V11    10.0   .     S
V9     V12    10.0   1_554     S
V9     V15    10.0   .     S
V9     V16    10.0   1_554     S
V10     V12    10.0   .     S
V10     V11    10.0   .     S
V10     V16    10.0   .     S
V10     V15    10.0   .     S
V11     V14    10.0   1_545     S
V11     V13    10.0   1_545     S
V11     V7    10.0   1_655     S
V12     V9    10.0   1_556     S
V12     V13    10.0   1_546     S
V12     V14    10.0   1_545     S
V12     V8    10.0   1_655     S
V13     V12    10.0   1_564     S
V13     V11    10.0   1_565     S
V13     V15    10.0   .     S
V13     V16    10.0   1_554     S
V13     V1    10.0   1_655     S
V14     V11    10.0   1_565     S
V14     V12    10.0   1_565     S
V14     V16    10.0   .     S
V14     V15    10.0   .     S
V14     V2    10.0   1_655     S
V16     V13    10.0   1_556     S
V16     V9    10.0   1_556     S
