data_noz
_audit_creation_date              2019-12-31
_audit_creation_method            'Pymatgen'
_symmetry_space_group_name_H-M    'P1'
_symmetry_Int_Tables_number       1
loop_
_symmetry_equiv_pos_as_xyz
  x,y,z
_cell_length_a                    27.0106
_cell_length_b                    29.5824
_cell_length_c                    23.7248
_cell_angle_alpha                 90.0
_cell_angle_beta                 90.0
_cell_angle_gamma                 90.0
loop_
_atom_site_label
_atom_site_type_symbol
_atom_site_fract_x
_atom_site_fract_y
_atom_site_fract_z
V1     V     0.0   0.849   0.0946
V2     V     0.5   0.849   0.0946
V3     V     0.25   0.849   0.4054
V4     V     0.75   0.849   0.4054
V5     V     0.0   0.151   0.9054
V6     V     0.5   0.151   0.9054
V7     V     0.25   0.151   0.5946
V8     V     0.75   0.151   0.5946
V9     V     0.0   0.651   0.5946
V10     V     0.5   0.651   0.5946
V11     V     0.25   0.651   0.9054
V12     V     0.75   0.651   0.9054
V13     V     0.0   0.349   0.4054
V14     V     0.5   0.349   0.4054
V15     V     0.25   0.349   0.0946
V16     V     0.75   0.349   0.0946
loop_
_geom_bond_atom_site_label_1
_geom_bond_atom_site_label_2
_geom_bond_distance
_geom_bond_site_symmetry_2
_ccdc_geom_bond_type
V1     V4    10.0   1_455     S
V1     V3    10.0   .     S
V1     V5    10.0   1_564     S
V1     V11    10.0   1_554     S
V1     V12    10.0   1_454     S
V2     V3    10.0   .     S
V2     V4    10.0   .     S
V2     V6    10.0   1_564     S
V2     V12    10.0   1_554     S
V2     V11    10.0   1_554     S
V3     V7    10.0   1_565     S
V3     V9    10.0   .     S
V3     V10    10.0   .     S
V4     V1    10.0   1_655     S
V4     V8    10.0   1_565     S
V4     V10    10.0   .     S
V4     V9    10.0   1_655     S
V5     V8    10.0   1_455     S
V5     V7    10.0   .     S
V5     V1    10.0   1_546     S
V5     V16    10.0   1_456     S
V5     V15    10.0   1_556     S
V6     V7    10.0   .     S
V6     V8    10.0   .     S
V6     V2    10.0   1_546     S
V6     V15    10.0   1_556     S
V6     V16    10.0   1_556     S
V7     V3    10.0   1_545     S
V7     V14    10.0   .     S
V7     V13    10.0   .     S
V8     V5    10.0   1_655     S
V8     V4    10.0   1_545     S
V8     V13    10.0   1_655     S
V8     V14    10.0   .     S
V9     V12    10.0   1_455     S
V9     V11    10.0   .     S
V9     V13    10.0   .     S
V9     V4    10.0   1_455     S
V10     V11    10.0   .     S
V10     V12    10.0   .     S
V10     V14    10.0   .     S
V11     V15    10.0   1_556     S
V11     V1    10.0   1_556     S
V11     V2    10.0   1_556     S
V12     V9    10.0   1_655     S
V12     V16    10.0   1_556     S
V12     V2    10.0   1_556     S
V12     V1    10.0   1_656     S
V13     V15    10.0   .     S
V13     V16    10.0   1_455     S
V13     V8    10.0   1_455     S
V14     V16    10.0   .     S
V14     V15    10.0   .     S
V15     V11    10.0   1_554     S
V15     V6    10.0   1_554     S
V15     V5    10.0   1_554     S
V16     V13    10.0   1_655     S
V16     V12    10.0   1_554     S
V16     V5    10.0   1_654     S
V16     V6    10.0   1_554     S
