data_npo-e
_audit_creation_date              2019-12-31
_audit_creation_method            'Pymatgen'
_symmetry_space_group_name_H-M    'P1'
_symmetry_Int_Tables_number       1
loop_
_symmetry_equiv_pos_as_xyz
  x,y,z
_cell_length_a                    34.495
_cell_length_b                    34.495
_cell_length_c                    40.0
_cell_angle_alpha                 90.0
_cell_angle_beta                 90.0
_cell_angle_gamma                 120.0
loop_
_atom_site_label
_atom_site_type_symbol
_atom_site_fract_x
_atom_site_fract_y
_atom_site_fract_z
Er1     Er     0.5   0.0   0.25
Er2     Er     0.5   0.0   0.75
Er3     Er     0.5   0.0   0.0
Er4     Er     0.5   0.0   0.5
V5     V     0.2367   0.7633   0.375
V6     V     0.2367   0.7633   0.875
V7     V     0.7633   0.2367   0.125
V8     V     0.7633   0.2367   0.625
Er9     Er     0.0   0.5   0.0
Er10     Er     0.0   0.5   0.5
Er11     Er     0.0   0.5   0.25
Er12     Er     0.0   0.5   0.75
V13     V     0.2367   0.4734   0.375
V14     V     0.2367   0.4734   0.875
V15     V     0.5266   0.7633   0.375
V16     V     0.5266   0.7633   0.875
V17     V     0.7633   0.5266   0.125
V18     V     0.7633   0.5266   0.625
Er19     Er     0.5   0.5   0.0
Er20     Er     0.5   0.5   0.5
Er21     Er     0.5   0.5   0.25
Er22     Er     0.5   0.5   0.75
V23     V     0.4734   0.2367   0.125
V24     V     0.4734   0.2367   0.625
loop_
_geom_bond_atom_site_label_1
_geom_bond_atom_site_label_2
_geom_bond_distance
_geom_bond_site_symmetry_2
_ccdc_geom_bond_type
Er1     V5    10.0   1_545     S
Er1     V23    10.0   .     S
Er1     Er4    10.0   .     S
Er1     Er3    10.0   .     S
Er1     V15    10.0   1_545     S
Er1     V7    10.0   .     S
Er2     V6    10.0   1_545     S
Er2     V24    10.0   .     S
Er2     Er3    10.0   1_556     S
Er2     Er4    10.0   .     S
Er2     V16    10.0   1_545     S
Er2     V8    10.0   .     S
Er3     V6    10.0   1_544     S
Er3     V23    10.0   .     S
Er3     Er2    10.0   1_554     S
Er3     V16    10.0   1_544     S
Er3     V7    10.0   .     S
Er4     V5    10.0   1_545     S
Er4     V24    10.0   .     S
Er4     V15    10.0   1_545     S
Er4     V8    10.0   .     S
V5     Er4    10.0   1_565     S
V5     Er1    10.0   1_565     S
V5     Er11    10.0   .     S
V5     Er10    10.0   .     S
V5     V13    10.0   .     S
V5     V15    10.0   .     S
V6     Er3    10.0   1_566     S
V6     Er2    10.0   1_565     S
V6     Er12    10.0   .     S
V6     Er9    10.0   1_556     S
V6     V14    10.0   .     S
V6     V16    10.0   .     S
V7     V23    10.0   .     S
V7     Er9    10.0   1_655     S
V7     Er11    10.0   1_655     S
V7     V17    10.0   .     S
V8     V24    10.0   .     S
V8     Er10    10.0   1_655     S
V8     Er12    10.0   1_655     S
V8     V18    10.0   .     S
Er9     V6    10.0   1_554     S
Er9     V17    10.0   1_455     S
Er9     V7    10.0   1_455     S
Er9     Er11    10.0   .     S
Er9     Er12    10.0   1_554     S
Er9     V14    10.0   1_554     S
Er10     V18    10.0   1_455     S
Er10     V8    10.0   1_455     S
Er10     Er12    10.0   .     S
Er10     Er11    10.0   .     S
Er10     V13    10.0   .     S
Er11     V17    10.0   1_455     S
Er11     V7    10.0   1_455     S
Er11     V13    10.0   .     S
Er12     V18    10.0   1_455     S
Er12     V8    10.0   1_455     S
Er12     Er9    10.0   1_556     S
Er12     V14    10.0   .     S
V13     Er21    10.0   .     S
V13     Er20    10.0   .     S
V13     V15    10.0   .     S
V14     Er9    10.0   1_556     S
V14     Er22    10.0   .     S
V14     Er19    10.0   1_556     S
V14     V16    10.0   .     S
V15     Er1    10.0   1_565     S
V15     Er4    10.0   1_565     S
V15     Er20    10.0   .     S
V15     Er21    10.0   .     S
V16     Er2    10.0   1_565     S
V16     Er3    10.0   1_566     S
V16     Er19    10.0   1_556     S
V16     Er22    10.0   .     S
V17     Er11    10.0   1_655     S
V17     Er9    10.0   1_655     S
V17     Er19    10.0   .     S
V17     Er21    10.0   .     S
V17     V23    10.0   .     S
V18     Er12    10.0   1_655     S
V18     Er10    10.0   1_655     S
V18     Er20    10.0   .     S
V18     Er22    10.0   .     S
V18     V24    10.0   .     S
Er19     V14    10.0   1_554     S
Er19     V16    10.0   1_554     S
Er19     Er21    10.0   .     S
Er19     Er22    10.0   1_554     S
Er19     V23    10.0   .     S
Er20     Er22    10.0   .     S
Er20     Er21    10.0   .     S
Er20     V24    10.0   .     S
Er21     V23    10.0   .     S
Er22     Er19    10.0   1_556     S
Er22     V24    10.0   .     S
