data_nsp
_audit_creation_date              2019-12-31
_audit_creation_method            'Pymatgen'
_symmetry_space_group_name_H-M    'P1'
_symmetry_Int_Tables_number       1
loop_
_symmetry_equiv_pos_as_xyz
  x,y,z
_cell_length_a                    37.462
_cell_length_b                    37.462
_cell_length_c                    38.3435
_cell_angle_alpha                 90.0
_cell_angle_beta                 90.0
_cell_angle_gamma                 120.0
loop_
_atom_site_label
_atom_site_type_symbol
_atom_site_fract_x
_atom_site_fract_y
_atom_site_fract_z
V1     V     0.4691   0.1882   0.2053
V2     V     0.4691   0.6882   0.2053
V3     V     0.9691   0.1882   0.2053
V4     V     0.9691   0.6882   0.2053
V5     V     0.2191   0.1882   0.2947
V6     V     0.2191   0.6882   0.2947
V7     V     0.7191   0.1882   0.2947
V8     V     0.7191   0.6882   0.2947
V9     V     0.2191   0.0309   0.872
V10     V     0.2191   0.5309   0.872
V11     V     0.7191   0.0309   0.872
V12     V     0.7191   0.5309   0.872
V13     V     0.4691   0.2809   0.9613
V14     V     0.4691   0.7809   0.9613
V15     V     0.9691   0.2809   0.9613
V16     V     0.9691   0.7809   0.9613
V17     V     0.3118   0.2809   0.5387
V18     V     0.3118   0.7809   0.5387
V19     V     0.8118   0.2809   0.5387
V20     V     0.8118   0.7809   0.5387
V21     V     0.3118   0.0309   0.628
V22     V     0.3118   0.5309   0.628
V23     V     0.8118   0.0309   0.628
V24     V     0.8118   0.5309   0.628
V25     V     0.0309   0.3118   0.7053
V26     V     0.0309   0.8118   0.7053
V27     V     0.5309   0.3118   0.7053
V28     V     0.5309   0.8118   0.7053
V29     V     0.2809   0.3118   0.7947
V30     V     0.2809   0.8118   0.7947
V31     V     0.7809   0.3118   0.7947
V32     V     0.7809   0.8118   0.7947
V33     V     0.1882   0.2191   0.0387
V34     V     0.1882   0.7191   0.0387
V35     V     0.6882   0.2191   0.0387
V36     V     0.6882   0.7191   0.0387
V37     V     0.1882   0.4691   0.128
V38     V     0.1882   0.9691   0.128
V39     V     0.6882   0.4691   0.128
V40     V     0.6882   0.9691   0.128
V41     V     0.2809   0.4691   0.372
V42     V     0.2809   0.9691   0.372
V43     V     0.7809   0.4691   0.372
V44     V     0.7809   0.9691   0.372
V45     V     0.0309   0.2191   0.4613
V46     V     0.0309   0.7191   0.4613
V47     V     0.5309   0.2191   0.4613
V48     V     0.5309   0.7191   0.4613
loop_
_geom_bond_atom_site_label_1
_geom_bond_atom_site_label_2
_geom_bond_distance
_geom_bond_site_symmetry_2
_ccdc_geom_bond_type
V1     V5    9.971   .     S
V1     V7    9.973   .     S
V1     V13    9.981   1_554     S
V1     V39    10.026   .     S
V1     V35    10.002   .     S
V1     V38    10.026   1_545     S
V1     V42    10.002   1_545     S
V1     V47    10.018   .     S
V2     V6    9.971   .     S
V2     V8    9.973   .     S
V2     V14    9.981   1_554     S
V2     V40    10.026   .     S
V2     V36    10.002   .     S
V2     V37    10.026   .     S
V2     V41    10.002   .     S
V2     V48    10.018   .     S
V3     V7    9.971   .     S
V3     V5    9.973   1_655     S
V3     V15    9.981   1_554     S
V3     V37    10.026   1_655     S
V3     V33    10.002   1_655     S
V3     V40    10.026   1_545     S
V3     V44    10.002   1_545     S
V3     V45    10.018   1_655     S
V4     V8    9.971   .     S
V4     V6    9.973   1_655     S
V4     V16    9.981   1_554     S
V4     V38    10.026   1_655     S
V4     V34    10.002   1_655     S
V4     V39    10.026   .     S
V4     V43    10.002   .     S
V4     V46    10.018   1_655     S
V5     V3    9.973   1_455     S
V5     V17    9.981   .     S
V5     V38    10.002   1_545     S
V5     V33    10.018   .     S
V5     V42    10.026   1_545     S
V5     V41    10.026   .     S
V5     V45    10.002   .     S
V6     V4    9.973   1_455     S
V6     V18    9.981   .     S
V6     V37    10.002   .     S
V6     V34    10.018   .     S
V6     V41    10.026   .     S
V6     V42    10.026   .     S
V6     V46    10.002   .     S
V7     V19    9.981   .     S
V7     V40    10.002   1_545     S
V7     V35    10.018   .     S
V7     V44    10.026   1_545     S
V7     V43    10.026   .     S
V7     V47    10.002   .     S
V8     V20    9.981   .     S
V8     V39    10.002   .     S
V8     V36    10.018   .     S
V8     V43    10.026   .     S
V8     V44    10.026   .     S
V8     V48    10.002   .     S
V9     V13    9.971   .     S
V9     V16    9.973   1_445     S
V9     V21    9.981   .     S
V9     V30    10.026   1_545     S
V9     V26    10.002   1_545     S
V9     V29    10.026   .     S
V9     V38    10.018   1_546     S
V9     V33    10.002   1_556     S
V10     V14    9.971   .     S
V10     V15    9.973   1_455     S
V10     V22    9.981   .     S
V10     V29    10.026   .     S
V10     V25    10.002   .     S
V10     V30    10.026   .     S
V10     V37    10.018   1_556     S
V10     V34    10.002   1_556     S
V11     V15    9.971   .     S
V11     V14    9.973   1_545     S
V11     V23    9.981   .     S
V11     V32    10.026   1_545     S
V11     V28    10.002   1_545     S
V11     V31    10.026   .     S
V11     V40    10.018   1_546     S
V11     V35    10.002   1_556     S
V12     V16    9.971   .     S
V12     V13    9.973   .     S
V12     V24    9.981   .     S
V12     V31    10.026   .     S
V12     V27    10.002   .     S
V12     V32    10.026   .     S
V12     V39    10.018   1_556     S
V12     V36    10.002   1_556     S
V13     V1    9.981   1_556     S
V13     V29    10.002   .     S
V13     V27    10.018   .     S
V13     V35    10.026   1_556     S
V13     V39    10.002   1_556     S
V13     V33    10.026   1_556     S
V14     V2    9.981   1_556     S
V14     V11    9.973   1_565     S
V14     V30    10.002   .     S
V14     V28    10.018   .     S
V14     V36    10.026   1_556     S
V14     V40    10.002   1_556     S
V14     V34    10.026   1_556     S
V15     V3    9.981   1_556     S
V15     V10    9.973   1_655     S
V15     V31    10.002   .     S
V15     V25    10.018   1_655     S
V15     V33    10.026   1_656     S
V15     V37    10.002   1_656     S
V15     V35    10.026   1_556     S
V16     V4    9.981   1_556     S
V16     V9    9.973   1_665     S
V16     V32    10.002   .     S
V16     V26    10.018   1_655     S
V16     V34    10.026   1_656     S
V16     V38    10.002   1_656     S
V16     V36    10.026   1_556     S
V17     V21    9.971   .     S
V17     V22    9.973   .     S
V17     V27    10.002   .     S
V17     V29    10.018   .     S
V17     V45    10.026   .     S
V17     V41    10.002   .     S
V17     V47    10.026   .     S
V18     V22    9.971   .     S
V18     V21    9.973   1_565     S
V18     V28    10.002   .     S
V18     V30    10.018   .     S
V18     V46    10.026   .     S
V18     V42    10.002   .     S
V18     V48    10.026   .     S
V19     V23    9.971   .     S
V19     V24    9.973   .     S
V19     V25    10.002   1_655     S
V19     V31    10.018   .     S
V19     V47    10.026   .     S
V19     V43    10.002   .     S
V19     V45    10.026   1_655     S
V20     V24    9.971   .     S
V20     V23    9.973   1_565     S
V20     V26    10.002   1_655     S
V20     V32    10.018   .     S
V20     V48    10.026   .     S
V20     V44    10.002   .     S
V20     V46    10.026   1_655     S
V21     V18    9.973   1_545     S
V21     V27    10.026   .     S
V21     V26    10.026   1_545     S
V21     V30    10.002   1_545     S
V21     V47    10.002   .     S
V21     V42    10.018   1_545     S
V22     V28    10.026   .     S
V22     V25    10.026   .     S
V22     V29    10.002   .     S
V22     V48    10.002   .     S
V22     V41    10.018   .     S
V23     V20    9.973   1_545     S
V23     V25    10.026   1_655     S
V23     V28    10.026   1_545     S
V23     V32    10.002   1_545     S
V23     V45    10.002   1_655     S
V23     V44    10.018   1_545     S
V24     V26    10.026   1_655     S
V24     V27    10.026   .     S
V24     V31    10.002   .     S
V24     V46    10.002   1_655     S
V24     V43    10.018   .     S
V25     V29    9.971   .     S
V25     V31    9.973   1_455     S
V25     V45    9.981   .     S
V25     V23    10.026   1_455     S
V25     V19    10.002   1_455     S
V25     V15    10.018   1_455     S
V26     V30    9.971   .     S
V26     V32    9.973   1_455     S
V26     V46    9.981   .     S
V26     V24    10.026   1_455     S
V26     V20    10.002   1_455     S
V26     V21    10.026   1_565     S
V26     V9    10.002   1_565     S
V26     V16    10.018   1_455     S
V27     V31    9.971   .     S
V27     V29    9.973   .     S
V27     V47    9.981   .     S
V28     V32    9.971   .     S
V28     V30    9.973   .     S
V28     V48    9.981   .     S
V28     V23    10.026   1_565     S
V28     V11    10.002   1_565     S
V29     V33    9.981   1_556     S
V30     V34    9.981   1_556     S
V30     V21    10.002   1_565     S
V30     V9    10.026   1_565     S
V31     V25    9.973   1_655     S
V31     V35    9.981   1_556     S
V32     V26    9.973   1_655     S
V32     V36    9.981   1_556     S
V32     V23    10.002   1_565     S
V32     V11    10.026   1_565     S
V33     V37    9.971   .     S
V33     V38    9.973   1_545     S
V33     V29    9.981   1_554     S
V33     V15    10.026   1_454     S
V33     V13    10.026   1_554     S
V33     V9    10.002   1_554     S
V33     V3    10.002   1_455     S
V34     V38    9.971   .     S
V34     V37    9.973   .     S
V34     V30    9.981   1_554     S
V34     V16    10.026   1_454     S
V34     V14    10.026   1_554     S
V34     V10    10.002   1_554     S
V34     V4    10.002   1_455     S
V35     V39    9.971   .     S
V35     V40    9.973   1_545     S
V35     V31    9.981   1_554     S
V35     V13    10.026   1_554     S
V35     V15    10.026   1_554     S
V35     V11    10.002   1_554     S
V36     V40    9.971   .     S
V36     V39    9.973   .     S
V36     V32    9.981   1_554     S
V36     V14    10.026   1_554     S
V36     V16    10.026   1_554     S
V36     V12    10.002   1_554     S
V37     V41    9.981   .     S
V37     V15    10.002   1_454     S
V37     V10    10.018   1_554     S
V37     V3    10.026   1_455     S
V38     V33    9.973   1_565     S
V38     V42    9.981   .     S
V38     V16    10.002   1_454     S
V38     V9    10.018   1_564     S
V38     V4    10.026   1_455     S
V38     V1    10.026   1_565     S
V38     V5    10.002   1_565     S
V39     V43    9.981   .     S
V39     V13    10.002   1_554     S
V39     V12    10.018   1_554     S
V40     V35    9.973   1_565     S
V40     V44    9.981   .     S
V40     V14    10.002   1_554     S
V40     V11    10.018   1_564     S
V40     V3    10.026   1_565     S
V40     V7    10.002   1_565     S
V41     V45    9.971   .     S
V41     V48    9.973   .     S
V42     V46    9.971   .     S
V42     V47    9.973   1_565     S
V42     V21    10.018   1_565     S
V42     V5    10.026   1_565     S
V42     V1    10.002   1_565     S
V43     V47    9.971   .     S
V43     V46    9.973   1_655     S
V44     V48    9.971   .     S
V44     V45    9.973   1_665     S
V44     V23    10.018   1_565     S
V44     V7    10.026   1_565     S
V44     V3    10.002   1_565     S
V45     V44    9.973   1_445     S
V45     V19    10.026   1_455     S
V45     V23    10.002   1_455     S
V45     V3    10.018   1_455     S
V46     V43    9.973   1_455     S
V46     V20    10.026   1_455     S
V46     V24    10.002   1_455     S
V46     V4    10.018   1_455     S
V47     V42    9.973   1_545     S
