data_nyn
_audit_creation_date              2019-12-31
_audit_creation_method            'Pymatgen'
_symmetry_space_group_name_H-M    'P1'
_symmetry_Int_Tables_number       1
loop_
_symmetry_equiv_pos_as_xyz
  x,y,z
_cell_length_a                    25.4846
_cell_length_b                    25.4846
_cell_length_c                    24.0919
_cell_angle_alpha                 90.0
_cell_angle_beta                 90.0
_cell_angle_gamma                 90.0
loop_
_atom_site_label
_atom_site_type_symbol
_atom_site_fract_x
_atom_site_fract_y
_atom_site_fract_z
Er1     Er     0.0   0.25   0.5
Er2     Er     0.0   0.75   0.5
Er3     Er     0.5   0.25   0.5
Er4     Er     0.5   0.75   0.5
Er5     Er     0.25   0.0   0.5
Er6     Er     0.25   0.5   0.5
Er7     Er     0.75   0.0   0.5
Er8     Er     0.75   0.5   0.5
Ti9     Ti     0.25   0.25   0.8199
Ti10     Ti     0.25   0.75   0.8199
Ti11     Ti     0.75   0.25   0.8199
Ti12     Ti     0.75   0.75   0.8199
Ti13     Ti     0.25   0.25   0.1801
Ti14     Ti     0.25   0.75   0.1801
Ti15     Ti     0.75   0.25   0.1801
Ti16     Ti     0.75   0.75   0.1801
V17     V     0.0   0.0   0.0
V18     V     0.0   0.5   0.0
V19     V     0.5   0.0   0.0
V20     V     0.5   0.5   0.0
loop_
_geom_bond_atom_site_label_1
_geom_bond_atom_site_label_2
_geom_bond_distance
_geom_bond_site_symmetry_2
_ccdc_geom_bond_type
Er1     Ti9    10.0   .     S
Er1     Ti11    10.0   1_455     S
Er1     Ti13    10.0   .     S
Er1     Ti15    10.0   1_455     S
Er2     Ti10    10.0   .     S
Er2     Ti12    10.0   1_455     S
Er2     Ti14    10.0   .     S
Er2     Ti16    10.0   1_455     S
Er3     Ti11    10.0   .     S
Er3     Ti9    10.0   .     S
Er3     Ti15    10.0   .     S
Er3     Ti13    10.0   .     S
Er4     Ti12    10.0   .     S
Er4     Ti10    10.0   .     S
Er4     Ti16    10.0   .     S
Er4     Ti14    10.0   .     S
Er5     Ti9    10.0   .     S
Er5     Ti10    10.0   1_545     S
Er5     Ti13    10.0   .     S
Er5     Ti14    10.0   1_545     S
Er6     Ti10    10.0   .     S
Er6     Ti9    10.0   .     S
Er6     Ti14    10.0   .     S
Er6     Ti13    10.0   .     S
Er7     Ti11    10.0   .     S
Er7     Ti12    10.0   1_545     S
Er7     Ti15    10.0   .     S
Er7     Ti16    10.0   1_545     S
Er8     Ti12    10.0   .     S
Er8     Ti11    10.0   .     S
Er8     Ti16    10.0   .     S
Er8     Ti15    10.0   .     S
Ti9     V20    10.0   1_556     S
Ti9     V19    10.0   1_556     S
Ti9     V17    10.0   1_556     S
Ti9     V18    10.0   1_556     S
Ti10     V19    10.0   1_566     S
Ti10     V20    10.0   1_556     S
Ti10     V18    10.0   1_556     S
Ti10     V17    10.0   1_566     S
Ti10     Er5    10.0   1_565     S
Ti11     V18    10.0   1_656     S
Ti11     V17    10.0   1_656     S
Ti11     V19    10.0   1_556     S
Ti11     V20    10.0   1_556     S
Ti11     Er1    10.0   1_655     S
Ti12     V17    10.0   1_666     S
Ti12     V18    10.0   1_656     S
Ti12     V20    10.0   1_556     S
Ti12     V19    10.0   1_566     S
Ti12     Er2    10.0   1_655     S
Ti12     Er7    10.0   1_565     S
Ti13     V20    10.0   .     S
Ti13     V19    10.0   .     S
Ti13     V17    10.0   .     S
Ti13     V18    10.0   .     S
Ti14     V19    10.0   1_565     S
Ti14     V20    10.0   .     S
Ti14     V18    10.0   .     S
Ti14     V17    10.0   1_565     S
Ti14     Er5    10.0   1_565     S
Ti15     V18    10.0   1_655     S
Ti15     V17    10.0   1_655     S
Ti15     V19    10.0   .     S
Ti15     V20    10.0   .     S
Ti15     Er1    10.0   1_655     S
Ti16     V17    10.0   1_665     S
Ti16     V18    10.0   1_655     S
Ti16     V20    10.0   .     S
Ti16     V19    10.0   1_565     S
Ti16     Er2    10.0   1_655     S
Ti16     Er7    10.0   1_565     S
V17     Ti16    10.0   1_445     S
V17     Ti12    10.0   1_444     S
V17     Ti15    10.0   1_455     S
V17     Ti11    10.0   1_454     S
V17     Ti9    10.0   1_554     S
V17     Ti14    10.0   1_545     S
V17     Ti10    10.0   1_544     S
V18     Ti15    10.0   1_455     S
V18     Ti11    10.0   1_454     S
V18     Ti16    10.0   1_455     S
V18     Ti12    10.0   1_454     S
V18     Ti10    10.0   1_554     S
V18     Ti9    10.0   1_554     S
V19     Ti14    10.0   1_545     S
V19     Ti10    10.0   1_544     S
V19     Ti9    10.0   1_554     S
V19     Ti11    10.0   1_554     S
V19     Ti16    10.0   1_545     S
V19     Ti12    10.0   1_544     S
V20     Ti9    10.0   1_554     S
V20     Ti10    10.0   1_554     S
V20     Ti12    10.0   1_554     S
V20     Ti11    10.0   1_554     S
