data_oab
_audit_creation_date              2019-12-31
_audit_creation_method            'Pymatgen'
_symmetry_space_group_name_H-M    'P1'
_symmetry_Int_Tables_number       1
loop_
_symmetry_equiv_pos_as_xyz
  x,y,z
_cell_length_a                    32.66
_cell_length_b                    43.0935
_cell_length_c                    40.0
_cell_angle_alpha                 90.0
_cell_angle_beta                 90.0
_cell_angle_gamma                 90.0
loop_
_atom_site_label
_atom_site_type_symbol
_atom_site_fract_x
_atom_site_fract_y
_atom_site_fract_z
Er1     Er     0.25   0.317   0.125
Er2     Er     0.25   0.317   0.625
Er3     Er     0.75   0.317   0.125
Er4     Er     0.75   0.317   0.625
Er5     Er     0.25   0.317   0.375
Er6     Er     0.25   0.317   0.875
Er7     Er     0.75   0.317   0.375
Er8     Er     0.75   0.317   0.875
V9     V     0.25   0.116   0.0
V10     V     0.25   0.116   0.5
V11     V     0.75   0.116   0.0
V12     V     0.75   0.116   0.5
V13     V     0.0   0.384   0.0
V14     V     0.0   0.384   0.5
V15     V     0.5   0.384   0.0
V16     V     0.5   0.384   0.5
Er17     Er     0.0   0.183   0.125
Er18     Er     0.0   0.183   0.625
Er19     Er     0.5   0.183   0.125
Er20     Er     0.5   0.183   0.625
Er21     Er     0.0   0.183   0.375
Er22     Er     0.0   0.183   0.875
Er23     Er     0.5   0.183   0.375
Er24     Er     0.5   0.183   0.875
V25     V     0.25   0.884   0.0
V26     V     0.25   0.884   0.5
V27     V     0.75   0.884   0.0
V28     V     0.75   0.884   0.5
Er29     Er     0.25   0.683   0.125
Er30     Er     0.25   0.683   0.625
Er31     Er     0.75   0.683   0.125
Er32     Er     0.75   0.683   0.625
Er33     Er     0.25   0.683   0.375
Er34     Er     0.25   0.683   0.875
Er35     Er     0.75   0.683   0.375
Er36     Er     0.75   0.683   0.875
V37     V     0.0   0.616   0.0
V38     V     0.0   0.616   0.5
V39     V     0.5   0.616   0.0
V40     V     0.5   0.616   0.5
Er41     Er     0.0   0.817   0.125
Er42     Er     0.0   0.817   0.625
Er43     Er     0.5   0.817   0.125
Er44     Er     0.5   0.817   0.625
Er45     Er     0.0   0.817   0.375
Er46     Er     0.0   0.817   0.875
Er47     Er     0.5   0.817   0.375
Er48     Er     0.5   0.817   0.875
loop_
_geom_bond_atom_site_label_1
_geom_bond_atom_site_label_2
_geom_bond_distance
_geom_bond_site_symmetry_2
_ccdc_geom_bond_type
Er1     V9    10.0   .     S
Er1     Er6    10.0   1_554     S
Er1     Er19    10.0   .     S
Er1     V15    10.0   .     S
Er1     Er17    10.0   .     S
Er1     V13    10.0   .     S
Er1     Er5    10.0   .     S
Er2     V10    10.0   .     S
Er2     Er5    10.0   .     S
Er2     Er20    10.0   .     S
Er2     V16    10.0   .     S
Er2     Er18    10.0   .     S
Er2     V14    10.0   .     S
Er2     Er6    10.0   .     S
Er3     V11    10.0   .     S
Er3     Er8    10.0   1_554     S
Er3     Er17    10.0   1_655     S
Er3     V13    10.0   1_655     S
Er3     Er19    10.0   .     S
Er3     V15    10.0   .     S
Er3     Er7    10.0   .     S
Er4     V12    10.0   .     S
Er4     Er7    10.0   .     S
Er4     Er18    10.0   1_655     S
Er4     V14    10.0   1_655     S
Er4     Er20    10.0   .     S
Er4     V16    10.0   .     S
Er4     Er8    10.0   .     S
Er5     V10    10.0   .     S
Er5     Er21    10.0   .     S
Er5     V14    10.0   .     S
Er5     Er23    10.0   .     S
Er5     V16    10.0   .     S
Er6     Er1    10.0   1_556     S
Er6     V9    10.0   1_556     S
Er6     Er22    10.0   .     S
Er6     V13    10.0   1_556     S
Er6     Er24    10.0   .     S
Er6     V15    10.0   1_556     S
Er7     V12    10.0   .     S
Er7     Er23    10.0   .     S
Er7     V16    10.0   .     S
Er7     Er21    10.0   1_655     S
Er7     V14    10.0   1_655     S
Er8     Er3    10.0   1_556     S
Er8     V11    10.0   1_556     S
Er8     Er24    10.0   .     S
Er8     V15    10.0   1_556     S
Er8     Er22    10.0   1_655     S
Er8     V13    10.0   1_656     S
V9     Er6    10.0   1_554     S
V9     Er19    10.0   .     S
V9     Er22    10.0   1_554     S
V9     Er24    10.0   1_554     S
V9     Er17    10.0   .     S
V9     V25    10.0   1_545     S
V10     Er20    10.0   .     S
V10     Er21    10.0   .     S
V10     Er23    10.0   .     S
V10     Er18    10.0   .     S
V10     V26    10.0   1_545     S
V11     Er8    10.0   1_554     S
V11     Er17    10.0   1_655     S
V11     Er24    10.0   1_554     S
V11     Er22    10.0   1_654     S
V11     Er19    10.0   .     S
V11     V27    10.0   1_545     S
V12     Er18    10.0   1_655     S
V12     Er23    10.0   .     S
V12     Er21    10.0   1_655     S
V12     Er20    10.0   .     S
V12     V28    10.0   1_545     S
V13     Er3    10.0   1_455     S
V13     Er6    10.0   1_554     S
V13     Er8    10.0   1_454     S
V13     Er17    10.0   .     S
V13     Er22    10.0   1_554     S
V13     V37    10.0   .     S
V14     Er4    10.0   1_455     S
V14     Er7    10.0   1_455     S
V14     Er18    10.0   .     S
V14     Er21    10.0   .     S
V14     V38    10.0   .     S
V15     Er8    10.0   1_554     S
V15     Er6    10.0   1_554     S
V15     Er19    10.0   .     S
V15     Er24    10.0   1_554     S
V15     V39    10.0   .     S
V16     Er20    10.0   .     S
V16     Er23    10.0   .     S
V16     V40    10.0   .     S
Er17     Er3    10.0   1_455     S
Er17     V11    10.0   1_455     S
Er17     Er22    10.0   1_554     S
Er17     Er21    10.0   .     S
Er18     Er4    10.0   1_455     S
Er18     V12    10.0   1_455     S
Er18     Er21    10.0   .     S
Er18     Er22    10.0   .     S
Er19     Er24    10.0   1_554     S
Er19     Er23    10.0   .     S
Er20     Er23    10.0   .     S
Er20     Er24    10.0   .     S
Er21     Er7    10.0   1_455     S
Er21     V12    10.0   1_455     S
Er22     V9    10.0   1_556     S
Er22     Er8    10.0   1_455     S
Er22     V11    10.0   1_456     S
Er22     V13    10.0   1_556     S
Er22     Er17    10.0   1_556     S
Er24     V11    10.0   1_556     S
Er24     V9    10.0   1_556     S
Er24     V15    10.0   1_556     S
Er24     Er19    10.0   1_556     S
V25     Er29    10.0   .     S
V25     Er34    10.0   1_554     S
V25     Er41    10.0   .     S
V25     Er48    10.0   1_554     S
V25     Er46    10.0   1_554     S
V25     Er43    10.0   .     S
V25     V9    10.0   1_565     S
V26     Er30    10.0   .     S
V26     Er33    10.0   .     S
V26     Er42    10.0   .     S
V26     Er47    10.0   .     S
V26     Er45    10.0   .     S
V26     Er44    10.0   .     S
V26     V10    10.0   1_565     S
V27     Er31    10.0   .     S
V27     Er36    10.0   1_554     S
V27     Er43    10.0   .     S
V27     Er46    10.0   1_654     S
V27     Er48    10.0   1_554     S
V27     Er41    10.0   1_655     S
V27     V11    10.0   1_565     S
V28     Er32    10.0   .     S
V28     Er35    10.0   .     S
V28     Er44    10.0   .     S
V28     Er45    10.0   1_655     S
V28     Er47    10.0   .     S
V28     Er42    10.0   1_655     S
V28     V12    10.0   1_565     S
Er29     Er34    10.0   1_554     S
Er29     Er41    10.0   .     S
Er29     V37    10.0   .     S
Er29     Er43    10.0   .     S
Er29     V39    10.0   .     S
Er29     Er33    10.0   .     S
Er30     Er33    10.0   .     S
Er30     Er42    10.0   .     S
Er30     V38    10.0   .     S
Er30     Er44    10.0   .     S
Er30     V40    10.0   .     S
Er30     Er34    10.0   .     S
Er31     Er36    10.0   1_554     S
Er31     Er43    10.0   .     S
Er31     V39    10.0   .     S
Er31     Er41    10.0   1_655     S
Er31     V37    10.0   1_655     S
Er31     Er35    10.0   .     S
Er32     Er35    10.0   .     S
Er32     Er44    10.0   .     S
Er32     V40    10.0   .     S
Er32     Er42    10.0   1_655     S
Er32     V38    10.0   1_655     S
Er32     Er36    10.0   .     S
Er33     Er47    10.0   .     S
Er33     V40    10.0   .     S
Er33     Er45    10.0   .     S
Er33     V38    10.0   .     S
Er34     V25    10.0   1_556     S
Er34     Er29    10.0   1_556     S
Er34     Er48    10.0   .     S
Er34     V39    10.0   1_556     S
Er34     Er46    10.0   .     S
Er34     V37    10.0   1_556     S
Er35     Er45    10.0   1_655     S
Er35     V38    10.0   1_655     S
Er35     Er47    10.0   .     S
Er35     V40    10.0   .     S
Er36     V27    10.0   1_556     S
Er36     Er31    10.0   1_556     S
Er36     Er46    10.0   1_655     S
Er36     V37    10.0   1_656     S
Er36     Er48    10.0   .     S
Er36     V39    10.0   1_556     S
V37     Er36    10.0   1_454     S
V37     Er34    10.0   1_554     S
V37     Er31    10.0   1_455     S
V37     Er41    10.0   .     S
V37     Er46    10.0   1_554     S
V38     Er35    10.0   1_455     S
V38     Er32    10.0   1_455     S
V38     Er42    10.0   .     S
V38     Er45    10.0   .     S
V39     Er34    10.0   1_554     S
V39     Er36    10.0   1_554     S
V39     Er43    10.0   .     S
V39     Er48    10.0   1_554     S
V40     Er44    10.0   .     S
V40     Er47    10.0   .     S
Er41     Er31    10.0   1_455     S
Er41     V27    10.0   1_455     S
Er41     Er46    10.0   1_554     S
Er41     Er45    10.0   .     S
Er42     Er32    10.0   1_455     S
Er42     V28    10.0   1_455     S
Er42     Er45    10.0   .     S
Er42     Er46    10.0   .     S
Er43     Er48    10.0   1_554     S
Er43     Er47    10.0   .     S
Er44     Er47    10.0   .     S
Er44     Er48    10.0   .     S
Er45     Er35    10.0   1_455     S
Er45     V28    10.0   1_455     S
Er46     Er36    10.0   1_455     S
Er46     V27    10.0   1_456     S
Er46     V25    10.0   1_556     S
Er46     V37    10.0   1_556     S
Er46     Er41    10.0   1_556     S
Er48     V25    10.0   1_556     S
Er48     V27    10.0   1_556     S
Er48     V39    10.0   1_556     S
Er48     Er43    10.0   1_556     S
