data_ofo
_audit_creation_date              2019-12-31
_audit_creation_method            'Pymatgen'
_symmetry_space_group_name_H-M    'P1'
_symmetry_Int_Tables_number       1
loop_
_symmetry_equiv_pos_as_xyz
  x,y,z
_cell_length_a                    31.57
_cell_length_b                    31.57
_cell_length_c                    41.1779
_cell_angle_alpha                 90.0
_cell_angle_beta                 90.0
_cell_angle_gamma                 120.0
loop_
_atom_site_label
_atom_site_type_symbol
_atom_site_fract_x
_atom_site_fract_y
_atom_site_fract_z
V1     V     0.1837   0.0693   0.5936
V2     V     0.1837   0.5692   0.5936
V3     V     0.6837   0.0693   0.5936
V4     V     0.6837   0.5692   0.5936
V5     V     0.3163   0.4308   0.5936
V6     V     0.3163   0.9308   0.5936
V7     V     0.8163   0.4308   0.5936
V8     V     0.8163   0.9308   0.5936
V9     V     0.0693   0.1837   0.7397
V10     V     0.0692   0.6837   0.7397
V11     V     0.5692   0.1837   0.7397
V12     V     0.5692   0.6837   0.7397
V13     V     0.4308   0.3163   0.7397
V14     V     0.4307   0.8163   0.7397
V15     V     0.9307   0.3163   0.7397
V16     V     0.9307   0.8163   0.7397
V17     V     0.1837   0.1145   0.0731
V18     V     0.1837   0.6145   0.0731
V19     V     0.6837   0.1145   0.0731
V20     V     0.6837   0.6145   0.0731
V21     V     0.3163   0.3855   0.0731
V22     V     0.3163   0.8855   0.0731
V23     V     0.8163   0.3855   0.0731
V24     V     0.8163   0.8855   0.0731
V25     V     0.4307   0.1145   0.9269
V26     V     0.4307   0.6145   0.9269
V27     V     0.9307   0.1145   0.9269
V28     V     0.9307   0.6145   0.9269
V29     V     0.0692   0.3855   0.9269
V30     V     0.0692   0.8855   0.9269
V31     V     0.5692   0.3855   0.9269
V32     V     0.5692   0.8855   0.9269
V33     V     0.3855   0.0693   0.4064
V34     V     0.3855   0.5692   0.4064
V35     V     0.8855   0.0693   0.4064
V36     V     0.8855   0.5692   0.4064
V37     V     0.1145   0.4308   0.4064
V38     V     0.1145   0.9308   0.4064
V39     V     0.6145   0.4308   0.4064
V40     V     0.6145   0.9308   0.4064
V41     V     0.1145   0.1837   0.2603
V42     V     0.1145   0.6837   0.2603
V43     V     0.6145   0.1837   0.2603
V44     V     0.6145   0.6837   0.2603
V45     V     0.3855   0.3163   0.2603
V46     V     0.3855   0.8163   0.2603
V47     V     0.8855   0.3163   0.2603
V48     V     0.8855   0.8163   0.2603
loop_
_geom_bond_atom_site_label_1
_geom_bond_atom_site_label_2
_geom_bond_distance
_geom_bond_site_symmetry_2
_ccdc_geom_bond_type
V1     V33    10.0   .     S
V1     V5    10.0   .     S
V1     V16    10.0   1_445     S
V2     V34    10.0   .     S
V2     V6    10.0   .     S
V2     V15    10.0   1_455     S
V3     V35    10.0   .     S
V3     V7    10.0   .     S
V3     V14    10.0   1_545     S
V4     V36    10.0   .     S
V4     V8    10.0   .     S
V4     V13    10.0   .     S
V5     V12    10.0   .     S
V5     V37    10.0   .     S
V6     V11    10.0   1_565     S
V6     V38    10.0   .     S
V7     V10    10.0   1_655     S
V7     V39    10.0   .     S
V8     V9    10.0   1_665     S
V8     V40    10.0   .     S
V9     V8    10.0   1_445     S
V9     V13    10.0   .     S
V9     V29    10.0   .     S
V10     V7    10.0   1_455     S
V10     V14    10.0   .     S
V10     V30    10.0   .     S
V11     V6    10.0   1_545     S
V11     V15    10.0   .     S
V11     V31    10.0   .     S
V12     V16    10.0   .     S
V12     V32    10.0   .     S
V13     V25    10.0   .     S
V14     V3    10.0   1_565     S
V14     V26    10.0   .     S
V15     V2    10.0   1_655     S
V15     V27    10.0   .     S
V16     V1    10.0   1_665     S
V16     V28    10.0   .     S
V17     V22    10.0   1_545     S
V17     V27    10.0   1_454     S
V17     V45    10.0   .     S
V18     V21    10.0   .     S
V18     V28    10.0   1_454     S
V18     V46    10.0   .     S
V19     V24    10.0   1_545     S
V19     V25    10.0   1_554     S
V19     V47    10.0   .     S
V20     V23    10.0   .     S
V20     V26    10.0   1_554     S
V20     V48    10.0   .     S
V21     V31    10.0   1_554     S
V21     V41    10.0   .     S
V22     V17    10.0   1_565     S
V22     V32    10.0   1_554     S
V22     V42    10.0   .     S
V23     V29    10.0   1_654     S
V23     V43    10.0   .     S
V24     V19    10.0   1_565     S
V24     V30    10.0   1_654     S
V24     V44    10.0   .     S
V25     V30    10.0   1_545     S
V25     V19    10.0   1_556     S
V26     V29    10.0   .     S
V26     V20    10.0   1_556     S
V27     V32    10.0   1_545     S
V27     V17    10.0   1_656     S
V28     V31    10.0   .     S
V28     V18    10.0   1_656     S
V29     V23    10.0   1_456     S
V30     V25    10.0   1_565     S
V30     V24    10.0   1_456     S
V31     V21    10.0   1_556     S
V32     V27    10.0   1_565     S
V32     V22    10.0   1_556     S
V33     V39    10.0   .     S
V33     V46    10.0   1_545     S
V34     V40    10.0   .     S
V34     V45    10.0   .     S
V35     V37    10.0   1_655     S
V35     V48    10.0   1_545     S
V36     V38    10.0   1_655     S
V36     V47    10.0   .     S
V37     V35    10.0   1_455     S
V37     V42    10.0   .     S
V38     V36    10.0   1_455     S
V38     V41    10.0   1_565     S
V39     V44    10.0   .     S
V40     V43    10.0   1_565     S
V41     V47    10.0   1_455     S
V41     V38    10.0   1_545     S
V42     V48    10.0   1_455     S
V43     V45    10.0   .     S
V43     V40    10.0   1_545     S
V44     V46    10.0   .     S
V46     V33    10.0   1_565     S
V47     V41    10.0   1_655     S
V48     V42    10.0   1_655     S
V48     V35    10.0   1_565     S
