data_oft
_audit_creation_date              2019-12-31
_audit_creation_method            'Pymatgen'
_symmetry_space_group_name_H-M    'P1'
_symmetry_Int_Tables_number       1
loop_
_symmetry_equiv_pos_as_xyz
  x,y,z
_cell_length_a                    32.2342
_cell_length_b                    32.2342
_cell_length_c                    46.8298
_cell_angle_alpha                 90.0
_cell_angle_beta                 90.0
_cell_angle_gamma                 120.0
loop_
_atom_site_label
_atom_site_type_symbol
_atom_site_fract_x
_atom_site_fract_y
_atom_site_fract_z
V1     V     0.4769   0.1436   0.9167
V2     V     0.4769   0.6436   0.9167
V3     V     0.9769   0.1436   0.9167
V4     V     0.9769   0.6436   0.9167
V5     V     0.3102   0.0   0.75
V6     V     0.3102   0.5   0.75
V7     V     0.8102   0.0   0.75
V8     V     0.8102   0.5   0.75
V9     V     0.3564   0.0231   0.4167
V10     V     0.3564   0.5231   0.4167
V11     V     0.8564   0.0231   0.4167
V12     V     0.8564   0.5231   0.4167
V13     V     0.3102   0.3102   0.25
V14     V     0.3102   0.8102   0.25
V15     V     0.8102   0.3102   0.25
V16     V     0.8102   0.8102   0.25
V17     V     1.0   0.3102   0.75
V18     V     0.0   0.8102   0.75
V19     V     0.5   0.3102   0.75
V20     V     0.5   0.8102   0.75
V21     V     0.4769   0.3333   0.4167
V22     V     0.4769   0.8333   0.4167
V23     V     0.9769   0.3333   0.4167
V24     V     0.9769   0.8333   0.4167
V25     V     0.3564   0.3333   0.9167
V26     V     0.3564   0.8333   0.9167
V27     V     0.8564   0.3333   0.9167
V28     V     0.8564   0.8333   0.9167
V29     V     0.1898   0.1898   0.75
V30     V     0.1898   0.6898   0.75
V31     V     0.6898   0.1898   0.75
V32     V     0.6898   0.6898   0.75
V33     V     0.1667   0.0231   0.9167
V34     V     0.1667   0.5231   0.9167
V35     V     0.6667   0.0231   0.9167
V36     V     0.6667   0.5231   0.9167
V37     V     0.3333   0.4769   0.0833
V38     V     0.3333   0.9769   0.0833
V39     V     0.8333   0.4769   0.0833
V40     V     0.8333   0.9769   0.0833
V41     V     0.0231   0.3564   0.0833
V42     V     0.0231   0.8564   0.0833
V43     V     0.5231   0.3564   0.0833
V44     V     0.5231   0.8564   0.0833
V45     V     0.1667   0.1436   0.4167
V46     V     0.1667   0.6436   0.4167
V47     V     0.6667   0.1436   0.4167
V48     V     0.6667   0.6436   0.4167
V49     V     0.1898   0.0   0.25
V50     V     0.1898   0.5   0.25
V51     V     0.6898   0.0   0.25
V52     V     0.6898   0.5   0.25
V53     V     0.0   0.1898   0.25
V54     V     0.0   0.6898   0.25
V55     V     0.5   0.1898   0.25
V56     V     0.5   0.6898   0.25
V57     V     0.3333   0.3564   0.5833
V58     V     0.3333   0.8564   0.5833
V59     V     0.8333   0.3564   0.5833
V60     V     0.8333   0.8564   0.5833
V61     V     0.1436   0.4769   0.5833
V62     V     0.1436   0.9769   0.5833
V63     V     0.6436   0.4769   0.5833
V64     V     0.6436   0.9769   0.5833
V65     V     0.1436   0.1667   0.0833
V66     V     0.1436   0.6667   0.0833
V67     V     0.6436   0.1667   0.0833
V68     V     0.6436   0.6667   0.0833
V69     V     0.0231   0.1667   0.5833
V70     V     0.0231   0.6667   0.5833
V71     V     0.5231   0.1667   0.5833
V72     V     0.5231   0.6667   0.5833
Er73     Er     0.1667   0.3333   0.9167
Er74     Er     0.1667   0.8333   0.9167
Er75     Er     0.6667   0.3333   0.9167
Er76     Er     0.6667   0.8333   0.9167
Er77     Er     0.3333   0.1667   0.5833
Er78     Er     0.3333   0.6667   0.5833
Er79     Er     0.8333   0.1667   0.5833
Er80     Er     0.8333   0.6667   0.5833
Er81     Er     0.3333   0.1667   0.0833
Er82     Er     0.3333   0.6667   0.0833
Er83     Er     0.8333   0.1667   0.0833
Er84     Er     0.8333   0.6667   0.0833
Er85     Er     0.1667   0.3333   0.4167
Er86     Er     0.1667   0.8333   0.4167
Er87     Er     0.6667   0.3333   0.4167
Er88     Er     0.6667   0.8333   0.4167
Er89     Er     0.0   0.0   0.25
Er90     Er     0.0   0.5   0.25
Er91     Er     0.5   0.0   0.25
Er92     Er     0.5   0.5   0.25
Er93     Er     0.0   0.0   0.75
Er94     Er     0.0   0.5   0.75
Er95     Er     0.5   0.0   0.75
Er96     Er     0.5   0.5   0.75
loop_
_geom_bond_atom_site_label_1
_geom_bond_atom_site_label_2
_geom_bond_distance
_geom_bond_site_symmetry_2
_ccdc_geom_bond_type
V1     V31    10.0   .     S
V1     Er74    10.0   1_545     S
V1     V43    10.0   1_556     S
V2     V32    10.0   .     S
V2     Er73    10.0   .     S
V2     V44    10.0   1_556     S
V3     V29    10.0   1_655     S
V3     Er76    10.0   1_545     S
V3     V41    10.0   1_656     S
V4     V30    10.0   1_655     S
V4     Er75    10.0   .     S
V4     V42    10.0   1_656     S
V5     V71    10.0   .     S
V5     V26    10.0   1_545     S
V5     Er93    10.0   .     S
V6     V72    10.0   .     S
V6     V25    10.0   .     S
V6     Er94    10.0   .     S
V7     V69    10.0   1_655     S
V7     V28    10.0   1_545     S
V7     Er95    10.0   .     S
V8     V70    10.0   1_655     S
V8     V27    10.0   .     S
V8     Er96    10.0   .     S
V9     V62    10.0   1_545     S
V9     Er87    10.0   .     S
V9     V14    10.0   1_545     S
V10     V61    10.0   .     S
V10     Er88    10.0   .     S
V10     V13    10.0   .     S
V11     V64    10.0   1_545     S
V11     Er85    10.0   1_655     S
V11     V16    10.0   1_545     S
V12     V63    10.0   .     S
V12     Er86    10.0   1_655     S
V12     V15    10.0   .     S
V13     V43    10.0   .     S
V13     Er89    10.0   .     S
V14     V44    10.0   .     S
V14     Er90    10.0   .     S
V14     V9    10.0   1_565     S
V15     V41    10.0   1_655     S
V15     Er91    10.0   .     S
V16     V42    10.0   1_655     S
V16     Er92    10.0   .     S
V16     V11    10.0   1_565     S
V17     Er93    10.0   1_655     S
V17     V59    10.0   .     S
V17     V34    10.0   1_655     S
V18     Er94    10.0   .     S
V18     V60    10.0   1_455     S
V18     V33    10.0   1_565     S
V19     Er95    10.0   .     S
V19     V57    10.0   .     S
V19     V36    10.0   .     S
V20     Er96    10.0   .     S
V20     V58    10.0   .     S
V20     V35    10.0   1_565     S
V21     V52    10.0   .     S
V21     V71    10.0   .     S
V21     Er85    10.0   .     S
V22     V51    10.0   1_565     S
V22     V72    10.0   .     S
V22     Er86    10.0   .     S
V23     V50    10.0   1_655     S
V23     V69    10.0   1_655     S
V23     Er87    10.0   .     S
V24     V49    10.0   1_665     S
V24     V70    10.0   1_655     S
V24     Er88    10.0   .     S
V25     V65    10.0   1_556     S
V25     Er75    10.0   .     S
V26     V66    10.0   1_556     S
V26     V5    10.0   1_565     S
V26     Er76    10.0   .     S
V27     V67    10.0   1_556     S
V27     Er73    10.0   1_655     S
V28     V68    10.0   1_556     S
V28     V7    10.0   1_565     S
V28     Er74    10.0   1_655     S
V29     V3    10.0   1_455     S
V29     Er96    10.0   .     S
V29     V62    10.0   1_545     S
V30     V4    10.0   1_455     S
V30     Er95    10.0   1_565     S
V30     V61    10.0   .     S
V31     Er94    10.0   1_655     S
V31     V64    10.0   1_545     S
V32     Er93    10.0   1_665     S
V32     V63    10.0   .     S
V33     Er73    10.0   .     S
V33     V38    10.0   1_546     S
V33     V18    10.0   1_545     S
V34     Er74    10.0   .     S
V34     V37    10.0   1_556     S
V34     V17    10.0   1_455     S
V35     Er75    10.0   .     S
V35     V40    10.0   1_546     S
V35     V20    10.0   1_545     S
V36     Er76    10.0   .     S
V36     V39    10.0   1_556     S
V37     Er81    10.0   .     S
V37     V34    10.0   1_554     S
V37     V56    10.0   .     S
V38     Er82    10.0   .     S
V38     V33    10.0   1_564     S
V38     V55    10.0   1_565     S
V39     Er83    10.0   .     S
V39     V36    10.0   1_554     S
V39     V54    10.0   1_655     S
V40     Er84    10.0   .     S
V40     V35    10.0   1_564     S
V40     V53    10.0   1_665     S
V41     V15    10.0   1_455     S
V41     Er82    10.0   .     S
V41     V3    10.0   1_454     S
V42     V16    10.0   1_455     S
V42     Er81    10.0   1_565     S
V42     V4    10.0   1_454     S
V43     Er84    10.0   .     S
V43     V1    10.0   1_554     S
V44     Er83    10.0   1_565     S
V44     V2    10.0   1_554     S
V45     Er86    10.0   1_545     S
V45     V53    10.0   .     S
V45     V57    10.0   .     S
V46     Er85    10.0   .     S
V46     V54    10.0   .     S
V46     V58    10.0   .     S
V47     Er88    10.0   1_545     S
V47     V55    10.0   .     S
V47     V59    10.0   .     S
V48     Er87    10.0   .     S
V48     V56    10.0   .     S
V48     V60    10.0   .     S
V49     V24    10.0   1_445     S
V49     V65    10.0   .     S
V49     Er91    10.0   .     S
V50     V23    10.0   1_455     S
V50     V66    10.0   .     S
V50     Er92    10.0   .     S
V51     V22    10.0   1_545     S
V51     V67    10.0   .     S
V51     Er89    10.0   1_655     S
V52     V68    10.0   .     S
V52     Er90    10.0   1_655     S
V53     Er90    10.0   .     S
V53     V40    10.0   1_445     S
V54     Er89    10.0   1_565     S
V54     V39    10.0   1_455     S
V55     Er92    10.0   .     S
V55     V38    10.0   1_545     S
V56     Er91    10.0   1_565     S
V57     Er78    10.0   .     S
V58     Er77    10.0   1_565     S
V59     Er80    10.0   .     S
V60     Er79    10.0   1_565     S
V60     V18    10.0   1_655     S
V61     Er79    10.0   1_455     S
V62     V9    10.0   1_565     S
V62     Er80    10.0   1_455     S
V62     V29    10.0   1_565     S
V63     Er77    10.0   .     S
V64     V11    10.0   1_565     S
V64     Er78    10.0   .     S
V64     V31    10.0   1_565     S
V65     V25    10.0   1_554     S
V65     Er83    10.0   1_455     S
V66     V26    10.0   1_554     S
V66     Er84    10.0   1_455     S
V67     V27    10.0   1_554     S
V67     Er81    10.0   .     S
V68     V28    10.0   1_554     S
V68     Er82    10.0   .     S
V69     V7    10.0   1_455     S
V69     V23    10.0   1_455     S
V69     Er77    10.0   .     S
V70     V8    10.0   1_455     S
V70     V24    10.0   1_455     S
V70     Er78    10.0   .     S
V71     Er79    10.0   .     S
V72     Er80    10.0   .     S
Er73     V27    10.0   1_455     S
Er74     V1    10.0   1_565     S
Er74     V28    10.0   1_455     S
Er76     V3    10.0   1_565     S
Er77     V58    10.0   1_545     S
Er79     V60    10.0   1_545     S
Er79     V61    10.0   1_655     S
Er80     V62    10.0   1_655     S
Er81     V42    10.0   1_545     S
Er83     V44    10.0   1_545     S
Er83     V65    10.0   1_655     S
Er84     V66    10.0   1_655     S
Er85     V11    10.0   1_455     S
Er86     V45    10.0   1_565     S
Er86     V12    10.0   1_455     S
Er88     V47    10.0   1_565     S
Er89     V54    10.0   1_545     S
Er89     V51    10.0   1_455     S
Er90     V52    10.0   1_455     S
Er91     V56    10.0   1_545     S
Er93     V17    10.0   1_455     S
Er93     V32    10.0   1_445     S
Er94     V31    10.0   1_455     S
Er95     V30    10.0   1_545     S
