data_oob
_audit_creation_date              2019-12-31
_audit_creation_method            'Pymatgen'
_symmetry_space_group_name_H-M    'P1'
_symmetry_Int_Tables_number       1
loop_
_symmetry_equiv_pos_as_xyz
  x,y,z
_cell_length_a                    30.0
_cell_length_b                    39.3616
_cell_length_c                    37.6474
_cell_angle_alpha                 90.0
_cell_angle_beta                 100.2508
_cell_angle_gamma                 90.0
loop_
_atom_site_label
_atom_site_type_symbol
_atom_site_fract_x
_atom_site_fract_y
_atom_site_fract_z
V1     V     0.2239   0.25   0.1331
V2     V     0.2239   0.25   0.6331
V3     V     0.2239   0.75   0.1331
V4     V     0.2239   0.75   0.6331
V5     V     0.5572   0.25   0.1331
V6     V     0.5572   0.25   0.6331
V7     V     0.5572   0.75   0.1331
V8     V     0.5572   0.75   0.6331
V9     V     0.8906   0.25   0.1331
V10     V     0.8906   0.25   0.6331
V11     V     0.8906   0.75   0.1331
V12     V     0.8906   0.75   0.6331
V13     V     0.2761   0.0   0.1169
V14     V     0.2761   0.0   0.6169
V15     V     0.2761   0.5   0.1169
V16     V     0.2761   0.5   0.6169
V17     V     0.6094   0.0   0.1169
V18     V     0.6094   0.0   0.6169
V19     V     0.6094   0.5   0.1169
V20     V     0.6094   0.5   0.6169
V21     V     0.9428   0.0   0.1169
V22     V     0.9428   0.0   0.6169
V23     V     0.9428   0.5   0.1169
V24     V     0.9428   0.5   0.6169
V25     V     0.1094   0.25   0.3669
V26     V     0.1094   0.25   0.8669
V27     V     0.1094   0.75   0.3669
V28     V     0.1094   0.75   0.8669
V29     V     0.4428   0.25   0.3669
V30     V     0.4428   0.25   0.8669
V31     V     0.4428   0.75   0.3669
V32     V     0.4428   0.75   0.8669
V33     V     0.7761   0.25   0.3669
V34     V     0.7761   0.25   0.8669
V35     V     0.7761   0.75   0.3669
V36     V     0.7761   0.75   0.8669
V37     V     0.0572   0.0   0.3831
V38     V     0.0572   0.0   0.8831
V39     V     0.0572   0.5   0.3831
V40     V     0.0572   0.5   0.8831
V41     V     0.3906   0.0   0.3831
V42     V     0.3906   0.0   0.8831
V43     V     0.3906   0.5   0.3831
V44     V     0.3906   0.5   0.8831
V45     V     0.7239   0.0   0.3831
V46     V     0.7239   0.0   0.8831
V47     V     0.7239   0.5   0.3831
V48     V     0.7239   0.5   0.8831
loop_
_geom_bond_atom_site_label_1
_geom_bond_atom_site_label_2
_geom_bond_distance
_geom_bond_site_symmetry_2
_ccdc_geom_bond_type
V1     V29    10.0   .     S
V1     V25    10.0   .     S
V1     V15    10.0   .     S
V1     V13    10.0   .     S
V1     V9    10.0   1_455     S
V1     V5    10.0   .     S
V1     V26    10.0   1_554     S
V2     V30    10.0   .     S
V2     V26    10.0   .     S
V2     V16    10.0   .     S
V2     V14    10.0   .     S
V2     V10    10.0   1_455     S
V2     V6    10.0   .     S
V2     V25    10.0   .     S
V3     V31    10.0   .     S
V3     V27    10.0   .     S
V3     V13    10.0   1_565     S
V3     V15    10.0   .     S
V3     V11    10.0   1_455     S
V3     V7    10.0   .     S
V3     V28    10.0   1_554     S
V4     V32    10.0   .     S
V4     V28    10.0   .     S
V4     V14    10.0   1_565     S
V4     V16    10.0   .     S
V4     V12    10.0   1_455     S
V4     V8    10.0   .     S
V4     V27    10.0   .     S
V5     V33    10.0   .     S
V5     V29    10.0   .     S
V5     V19    10.0   .     S
V5     V17    10.0   .     S
V5     V9    10.0   .     S
V5     V30    10.0   1_554     S
V6     V34    10.0   .     S
V6     V30    10.0   .     S
V6     V20    10.0   .     S
V6     V18    10.0   .     S
V6     V10    10.0   .     S
V6     V29    10.0   .     S
V7     V35    10.0   .     S
V7     V31    10.0   .     S
V7     V17    10.0   1_565     S
V7     V19    10.0   .     S
V7     V11    10.0   .     S
V7     V32    10.0   1_554     S
V8     V36    10.0   .     S
V8     V32    10.0   .     S
V8     V18    10.0   1_565     S
V8     V20    10.0   .     S
V8     V12    10.0   .     S
V8     V31    10.0   .     S
V9     V25    10.0   1_655     S
V9     V33    10.0   .     S
V9     V23    10.0   .     S
V9     V21    10.0   .     S
V9     V1    10.0   1_655     S
V9     V34    10.0   1_554     S
V10     V26    10.0   1_655     S
V10     V34    10.0   .     S
V10     V24    10.0   .     S
V10     V22    10.0   .     S
V10     V2    10.0   1_655     S
V10     V33    10.0   .     S
V11     V27    10.0   1_655     S
V11     V35    10.0   .     S
V11     V21    10.0   1_565     S
V11     V23    10.0   .     S
V11     V3    10.0   1_655     S
V11     V36    10.0   1_554     S
V12     V28    10.0   1_655     S
V12     V36    10.0   .     S
V12     V22    10.0   1_565     S
V12     V24    10.0   .     S
V12     V4    10.0   1_655     S
V12     V35    10.0   .     S
V13     V3    10.0   1_545     S
V13     V21    10.0   1_455     S
V13     V17    10.0   .     S
V13     V38    10.0   1_554     S
V13     V42    10.0   1_554     S
V13     V41    10.0   .     S
V14     V4    10.0   1_545     S
V14     V22    10.0   1_455     S
V14     V18    10.0   .     S
V14     V37    10.0   .     S
V14     V41    10.0   .     S
V14     V42    10.0   .     S
V15     V23    10.0   1_455     S
V15     V19    10.0   .     S
V15     V40    10.0   1_554     S
V15     V44    10.0   1_554     S
V15     V43    10.0   .     S
V16     V24    10.0   1_455     S
V16     V20    10.0   .     S
V16     V39    10.0   .     S
V16     V43    10.0   .     S
V16     V44    10.0   .     S
V17     V7    10.0   1_545     S
V17     V21    10.0   .     S
V17     V42    10.0   1_554     S
V17     V46    10.0   1_554     S
V17     V45    10.0   .     S
V18     V8    10.0   1_545     S
V18     V22    10.0   .     S
V18     V41    10.0   .     S
V18     V45    10.0   .     S
V18     V46    10.0   .     S
V19     V23    10.0   .     S
V19     V44    10.0   1_554     S
V19     V48    10.0   1_554     S
V19     V47    10.0   .     S
V20     V24    10.0   .     S
V20     V43    10.0   .     S
V20     V47    10.0   .     S
V20     V48    10.0   .     S
V21     V11    10.0   1_545     S
V21     V13    10.0   1_655     S
V21     V46    10.0   1_554     S
V21     V38    10.0   1_654     S
V21     V37    10.0   1_655     S
V22     V12    10.0   1_545     S
V22     V14    10.0   1_655     S
V22     V45    10.0   .     S
V22     V37    10.0   1_655     S
V22     V38    10.0   1_655     S
V23     V15    10.0   1_655     S
V23     V48    10.0   1_554     S
V23     V40    10.0   1_654     S
V23     V39    10.0   1_655     S
V24     V16    10.0   1_655     S
V24     V47    10.0   .     S
V24     V39    10.0   1_655     S
V24     V40    10.0   1_655     S
V25     V9    10.0   1_455     S
V25     V39    10.0   .     S
V25     V37    10.0   .     S
V25     V29    10.0   .     S
V25     V33    10.0   1_455     S
V26     V10    10.0   1_455     S
V26     V40    10.0   .     S
V26     V38    10.0   .     S
V26     V30    10.0   .     S
V26     V34    10.0   1_455     S
V26     V1    10.0   1_556     S
V27     V11    10.0   1_455     S
V27     V37    10.0   1_565     S
V27     V39    10.0   .     S
V27     V31    10.0   .     S
V27     V35    10.0   1_455     S
V28     V12    10.0   1_455     S
V28     V38    10.0   1_565     S
V28     V40    10.0   .     S
V28     V32    10.0   .     S
V28     V36    10.0   1_455     S
V28     V3    10.0   1_556     S
V29     V43    10.0   .     S
V29     V41    10.0   .     S
V29     V33    10.0   .     S
V30     V44    10.0   .     S
V30     V42    10.0   .     S
V30     V34    10.0   .     S
V30     V5    10.0   1_556     S
V31     V41    10.0   1_565     S
V31     V43    10.0   .     S
V31     V35    10.0   .     S
V32     V42    10.0   1_565     S
V32     V44    10.0   .     S
V32     V36    10.0   .     S
V32     V7    10.0   1_556     S
V33     V47    10.0   .     S
V33     V45    10.0   .     S
V33     V25    10.0   1_655     S
V34     V48    10.0   .     S
V34     V46    10.0   .     S
V34     V26    10.0   1_655     S
V34     V9    10.0   1_556     S
V35     V45    10.0   1_565     S
V35     V47    10.0   .     S
V35     V27    10.0   1_655     S
V36     V46    10.0   1_565     S
V36     V48    10.0   .     S
V36     V28    10.0   1_655     S
V36     V11    10.0   1_556     S
V37     V27    10.0   1_545     S
V37     V41    10.0   .     S
V37     V45    10.0   1_455     S
V37     V22    10.0   1_455     S
V37     V21    10.0   1_455     S
V38     V28    10.0   1_545     S
V38     V42    10.0   .     S
V38     V46    10.0   1_455     S
V38     V13    10.0   1_556     S
V38     V21    10.0   1_456     S
V38     V22    10.0   1_455     S
V39     V43    10.0   .     S
V39     V47    10.0   1_455     S
V39     V24    10.0   1_455     S
V39     V23    10.0   1_455     S
V40     V44    10.0   .     S
V40     V48    10.0   1_455     S
V40     V15    10.0   1_556     S
V40     V23    10.0   1_456     S
V40     V24    10.0   1_455     S
V41     V31    10.0   1_545     S
V41     V45    10.0   .     S
V42     V32    10.0   1_545     S
V42     V46    10.0   .     S
V42     V17    10.0   1_556     S
V42     V13    10.0   1_556     S
V43     V47    10.0   .     S
V44     V48    10.0   .     S
V44     V19    10.0   1_556     S
V44     V15    10.0   1_556     S
V45     V35    10.0   1_545     S
V45     V37    10.0   1_655     S
V46     V36    10.0   1_545     S
V46     V38    10.0   1_655     S
V46     V21    10.0   1_556     S
V46     V17    10.0   1_556     S
V47     V39    10.0   1_655     S
V48     V40    10.0   1_655     S
V48     V23    10.0   1_556     S
V48     V19    10.0   1_556     S
