data_ooc
_audit_creation_date              2019-12-31
_audit_creation_method            'Pymatgen'
_symmetry_space_group_name_H-M    'P1'
_symmetry_Int_Tables_number       1
loop_
_symmetry_equiv_pos_as_xyz
  x,y,z
_cell_length_a                    30.2414
_cell_length_b                    26.2656
_cell_length_c                    37.2848
_cell_angle_alpha                 90.0
_cell_angle_beta                 110.0185
_cell_angle_gamma                 90.0
loop_
_atom_site_label
_atom_site_type_symbol
_atom_site_fract_x
_atom_site_fract_y
_atom_site_fract_z
V1     V     0.313   0.25   0.3936
V2     V     0.313   0.25   0.8936
V3     V     0.313   0.75   0.3936
V4     V     0.313   0.75   0.8936
V5     V     0.813   0.25   0.3936
V6     V     0.813   0.25   0.8936
V7     V     0.813   0.75   0.3936
V8     V     0.813   0.75   0.8936
V9     V     0.187   0.25   0.1064
V10     V     0.187   0.25   0.6064
V11     V     0.187   0.75   0.1064
V12     V     0.187   0.75   0.6064
V13     V     0.687   0.25   0.1064
V14     V     0.687   0.25   0.6064
V15     V     0.687   0.75   0.1064
V16     V     0.687   0.75   0.6064
V17     V     0.063   0.0   0.3936
V18     V     0.063   0.0   0.8936
V19     V     0.063   0.5   0.3936
V20     V     0.063   0.5   0.8936
V21     V     0.563   0.0   0.3936
V22     V     0.563   0.0   0.8936
V23     V     0.563   0.5   0.3936
V24     V     0.563   0.5   0.8936
V25     V     0.437   0.0   0.1064
V26     V     0.437   0.0   0.6064
V27     V     0.437   0.5   0.1064
V28     V     0.437   0.5   0.6064
V29     V     0.937   0.0   0.1064
V30     V     0.937   0.0   0.6064
V31     V     0.937   0.5   0.1064
V32     V     0.937   0.5   0.6064
loop_
_geom_bond_atom_site_label_1
_geom_bond_atom_site_label_2
_geom_bond_distance
_geom_bond_site_symmetry_2
_ccdc_geom_bond_type
V1     V28    9.987   .     S
V1     V26    9.987   .     S
V1     V9    10.064   .     S
V1     V10    9.908   .     S
V1     V19    10.014   .     S
V1     V23    10.014   .     S
V1     V21    10.014   .     S
V1     V17    10.014   .     S
V2     V27    9.987   1_556     S
V2     V25    9.987   1_556     S
V2     V10    10.064   .     S
V2     V9    9.908   1_556     S
V2     V20    10.014   .     S
V2     V24    10.014   .     S
V2     V22    10.014   .     S
V2     V18    10.014   .     S
V3     V26    9.987   1_565     S
V3     V28    9.987   .     S
V3     V11    10.064   .     S
V3     V12    9.908   .     S
V3     V17    10.014   1_565     S
V3     V21    10.014   1_565     S
V3     V23    10.014   .     S
V3     V19    10.014   .     S
V4     V25    9.987   1_566     S
V4     V27    9.987   1_556     S
V4     V12    10.064   .     S
V4     V11    9.908   1_556     S
V4     V18    10.014   1_565     S
V4     V22    10.014   1_565     S
V4     V24    10.014   .     S
V4     V20    10.014   .     S
V5     V32    9.987   .     S
V5     V30    9.987   .     S
V5     V13    10.064   .     S
V5     V14    9.908   .     S
V5     V23    10.014   .     S
V5     V19    10.014   1_655     S
V5     V17    10.014   1_655     S
V5     V21    10.014   .     S
V6     V31    9.987   1_556     S
V6     V29    9.987   1_556     S
V6     V14    10.064   .     S
V6     V13    9.908   1_556     S
V6     V24    10.014   .     S
V6     V20    10.014   1_655     S
V6     V18    10.014   1_655     S
V6     V22    10.014   .     S
V7     V30    9.987   1_565     S
V7     V32    9.987   .     S
V7     V15    10.064   .     S
V7     V16    9.908   .     S
V7     V21    10.014   1_565     S
V7     V17    10.014   1_665     S
V7     V19    10.014   1_655     S
V7     V23    10.014   .     S
V8     V29    9.987   1_566     S
V8     V31    9.987   1_556     S
V8     V16    10.064   .     S
V8     V15    9.908   1_556     S
V8     V22    10.014   1_565     S
V8     V18    10.014   1_665     S
V8     V20    10.014   1_655     S
V8     V24    10.014   .     S
V9     V20    9.987   1_554     S
V9     V18    9.987   1_554     S
V9     V2    9.908   1_554     S
V9     V31    10.014   1_455     S
V9     V27    10.014   .     S
V9     V25    10.014   .     S
V9     V29    10.014   1_455     S
V10     V19    9.987   .     S
V10     V17    9.987   .     S
V10     V32    10.014   1_455     S
V10     V28    10.014   .     S
V10     V26    10.014   .     S
V10     V30    10.014   1_455     S
V11     V18    9.987   1_564     S
V11     V20    9.987   1_554     S
V11     V4    9.908   1_554     S
V11     V29    10.014   1_465     S
V11     V25    10.014   1_565     S
V11     V27    10.014   .     S
V11     V31    10.014   1_455     S
V12     V17    9.987   1_565     S
V12     V19    9.987   .     S
V12     V30    10.014   1_465     S
V12     V26    10.014   1_565     S
V12     V28    10.014   .     S
V12     V32    10.014   1_455     S
V13     V24    9.987   1_554     S
V13     V22    9.987   1_554     S
V13     V6    9.908   1_554     S
V13     V27    10.014   .     S
V13     V31    10.014   .     S
V13     V29    10.014   .     S
V13     V25    10.014   .     S
V14     V23    9.987   .     S
V14     V21    9.987   .     S
V14     V28    10.014   .     S
V14     V32    10.014   .     S
V14     V30    10.014   .     S
V14     V26    10.014   .     S
V15     V22    9.987   1_564     S
V15     V24    9.987   1_554     S
V15     V8    9.908   1_554     S
V15     V25    10.014   1_565     S
V15     V29    10.014   1_565     S
V15     V31    10.014   .     S
V15     V27    10.014   .     S
V16     V21    9.987   1_565     S
V16     V23    9.987   .     S
V16     V26    10.014   1_565     S
V16     V30    10.014   1_565     S
V16     V32    10.014   .     S
V16     V28    10.014   .     S
V17     V12    9.987   1_545     S
V17     V29    10.064   1_455     S
V17     V30    9.908   1_455     S
V17     V3    10.014   1_545     S
V17     V7    10.014   1_445     S
V17     V5    10.014   1_455     S
V18     V11    9.987   1_546     S
V18     V9    9.987   1_556     S
V18     V30    10.064   1_455     S
V18     V29    9.908   1_456     S
V18     V4    10.014   1_545     S
V18     V8    10.014   1_445     S
V18     V6    10.014   1_455     S
V19     V31    10.064   1_455     S
V19     V32    9.908   1_455     S
V19     V5    10.014   1_455     S
V19     V7    10.014   1_455     S
V20     V9    9.987   1_556     S
V20     V11    9.987   1_556     S
V20     V32    10.064   1_455     S
V20     V31    9.908   1_456     S
V20     V6    10.014   1_455     S
V20     V8    10.014   1_455     S
V21     V16    9.987   1_545     S
V21     V25    10.064   .     S
V21     V26    9.908   .     S
V21     V7    10.014   1_545     S
V21     V3    10.014   1_545     S
V22     V15    9.987   1_546     S
V22     V13    9.987   1_556     S
V22     V26    10.064   .     S
V22     V25    9.908   1_556     S
V22     V8    10.014   1_545     S
V22     V4    10.014   1_545     S
V23     V27    10.064   .     S
V23     V28    9.908   .     S
V24     V13    9.987   1_556     S
V24     V15    9.987   1_556     S
V24     V28    10.064   .     S
V24     V27    9.908   1_556     S
V25     V4    9.987   1_544     S
V25     V2    9.987   1_554     S
V25     V22    9.908   1_554     S
V25     V15    10.014   1_545     S
V25     V11    10.014   1_545     S
V26     V3    9.987   1_545     S
V26     V16    10.014   1_545     S
V26     V12    10.014   1_545     S
V27     V2    9.987   1_554     S
V27     V4    9.987   1_554     S
V27     V24    9.908   1_554     S
V29     V8    9.987   1_544     S
V29     V6    9.987   1_554     S
V29     V17    10.064   1_655     S
V29     V18    9.908   1_654     S
V29     V11    10.014   1_645     S
V29     V15    10.014   1_545     S
V29     V9    10.014   1_655     S
V30     V7    9.987   1_545     S
V30     V18    10.064   1_655     S
V30     V17    9.908   1_655     S
V30     V12    10.014   1_645     S
V30     V16    10.014   1_545     S
V30     V10    10.014   1_655     S
V31     V6    9.987   1_554     S
V31     V8    9.987   1_554     S
V31     V19    10.064   1_655     S
V31     V20    9.908   1_654     S
V31     V9    10.014   1_655     S
V31     V11    10.014   1_655     S
V32     V20    10.064   1_655     S
V32     V19    9.908   1_655     S
V32     V10    10.014   1_655     S
V32     V12    10.014   1_655     S
