data_osc
_audit_creation_date              2019-12-31
_audit_creation_method            'Pymatgen'
_symmetry_space_group_name_H-M    'P1'
_symmetry_Int_Tables_number       1
loop_
_symmetry_equiv_pos_as_xyz
  x,y,z
_cell_length_a                    38.2358
_cell_length_b                    29.062
_cell_length_c                    34.0936
_cell_angle_alpha                 90.0
_cell_angle_beta                 90.0
_cell_angle_gamma                 90.0
loop_
_atom_site_label
_atom_site_type_symbol
_atom_site_fract_x
_atom_site_fract_y
_atom_site_fract_z
V1     V     0.0908   0.922   0.4181
V2     V     0.0908   0.922   0.9181
V3     V     0.5908   0.922   0.4181
V4     V     0.5908   0.922   0.9181
V5     V     0.0908   0.578   0.4181
V6     V     0.0908   0.578   0.9181
V7     V     0.5908   0.578   0.4181
V8     V     0.5908   0.578   0.9181
V9     V     0.3408   0.922   0.3319
V10     V     0.3408   0.922   0.8319
V11     V     0.8408   0.922   0.3319
V12     V     0.8408   0.922   0.8319
V13     V     0.3408   0.578   0.3319
V14     V     0.3408   0.578   0.8319
V15     V     0.8408   0.578   0.3319
V16     V     0.8408   0.578   0.8319
V17     V     0.4092   0.422   0.0819
V18     V     0.4092   0.422   0.5819
V19     V     0.9092   0.422   0.0819
V20     V     0.9092   0.422   0.5819
V21     V     0.4092   0.078   0.0819
V22     V     0.4092   0.078   0.5819
V23     V     0.9092   0.078   0.0819
V24     V     0.9092   0.078   0.5819
V25     V     0.1592   0.422   0.1681
V26     V     0.1592   0.422   0.6681
V27     V     0.6592   0.422   0.1681
V28     V     0.6592   0.422   0.6681
V29     V     0.1592   0.078   0.1681
V30     V     0.1592   0.078   0.6681
V31     V     0.6592   0.078   0.1681
V32     V     0.6592   0.078   0.6681
loop_
_geom_bond_atom_site_label_1
_geom_bond_atom_site_label_2
_geom_bond_distance
_geom_bond_site_symmetry_2
_ccdc_geom_bond_type
V1     V24    10.0   1_465     S
V1     V30    10.0   1_565     S
V1     V5    10.0   .     S
V1     V11    10.0   1_455     S
V1     V9    10.0   .     S
V1     V29    10.0   1_565     S
V2     V23    10.0   1_466     S
V2     V29    10.0   1_566     S
V2     V6    10.0   .     S
V2     V12    10.0   1_455     S
V2     V10    10.0   .     S
V2     V30    10.0   1_565     S
V3     V22    10.0   1_565     S
V3     V32    10.0   1_565     S
V3     V7    10.0   .     S
V3     V9    10.0   .     S
V3     V11    10.0   .     S
V3     V31    10.0   1_565     S
V4     V21    10.0   1_566     S
V4     V31    10.0   1_566     S
V4     V8    10.0   .     S
V4     V10    10.0   .     S
V4     V12    10.0   .     S
V4     V32    10.0   1_565     S
V5     V25    10.0   .     S
V5     V13    10.0   .     S
V5     V15    10.0   1_455     S
V5     V20    10.0   1_455     S
V5     V26    10.0   .     S
V6     V26    10.0   .     S
V6     V14    10.0   .     S
V6     V16    10.0   1_455     S
V6     V19    10.0   1_456     S
V6     V25    10.0   1_556     S
V7     V27    10.0   .     S
V7     V15    10.0   .     S
V7     V13    10.0   .     S
V7     V18    10.0   .     S
V7     V28    10.0   .     S
V8     V28    10.0   .     S
V8     V16    10.0   .     S
V8     V14    10.0   .     S
V8     V17    10.0   1_556     S
V8     V27    10.0   1_556     S
V9     V22    10.0   1_565     S
V9     V13    10.0   .     S
V9     V29    10.0   1_565     S
V9     V21    10.0   1_565     S
V10     V21    10.0   1_566     S
V10     V14    10.0   .     S
V10     V30    10.0   1_565     S
V10     V22    10.0   1_565     S
V11     V24    10.0   1_565     S
V11     V15    10.0   .     S
V11     V1    10.0   1_655     S
V11     V31    10.0   1_565     S
V11     V23    10.0   1_565     S
V12     V23    10.0   1_566     S
V12     V16    10.0   .     S
V12     V2    10.0   1_655     S
V12     V32    10.0   1_565     S
V12     V24    10.0   1_565     S
V13     V25    10.0   .     S
V13     V17    10.0   .     S
V13     V18    10.0   .     S
V14     V26    10.0   .     S
V14     V18    10.0   .     S
V14     V17    10.0   1_556     S
V15     V27    10.0   .     S
V15     V19    10.0   .     S
V15     V5    10.0   1_655     S
V15     V20    10.0   .     S
V16     V28    10.0   .     S
V16     V20    10.0   .     S
V16     V6    10.0   1_655     S
V16     V19    10.0   1_556     S
V17     V21    10.0   .     S
V17     V27    10.0   .     S
V17     V25    10.0   .     S
V17     V8    10.0   1_554     S
V17     V14    10.0   1_554     S
V18     V22    10.0   .     S
V18     V28    10.0   .     S
V18     V26    10.0   .     S
V19     V23    10.0   .     S
V19     V25    10.0   1_655     S
V19     V27    10.0   .     S
V19     V6    10.0   1_654     S
V19     V16    10.0   1_554     S
V20     V24    10.0   .     S
V20     V26    10.0   1_655     S
V20     V28    10.0   .     S
V20     V5    10.0   1_655     S
V21     V4    10.0   1_544     S
V21     V10    10.0   1_544     S
V21     V9    10.0   1_545     S
V21     V29    10.0   .     S
V21     V31    10.0   .     S
V22     V3    10.0   1_545     S
V22     V9    10.0   1_545     S
V22     V10    10.0   1_545     S
V22     V30    10.0   .     S
V22     V32    10.0   .     S
V23     V2    10.0   1_644     S
V23     V12    10.0   1_544     S
V23     V11    10.0   1_545     S
V23     V31    10.0   .     S
V23     V29    10.0   1_655     S
V24     V1    10.0   1_645     S
V24     V11    10.0   1_545     S
V24     V12    10.0   1_545     S
V24     V32    10.0   .     S
V24     V30    10.0   1_655     S
V25     V29    10.0   .     S
V25     V19    10.0   1_455     S
V25     V6    10.0   1_554     S
V26     V30    10.0   .     S
V26     V20    10.0   1_455     S
V27     V31    10.0   .     S
V27     V8    10.0   1_554     S
V28     V32    10.0   .     S
V29     V2    10.0   1_544     S
V29     V9    10.0   1_545     S
V29     V1    10.0   1_545     S
V29     V23    10.0   1_455     S
V30     V1    10.0   1_545     S
V30     V10    10.0   1_545     S
V30     V2    10.0   1_545     S
V30     V24    10.0   1_455     S
V31     V4    10.0   1_544     S
V31     V11    10.0   1_545     S
V31     V3    10.0   1_545     S
V32     V3    10.0   1_545     S
V32     V12    10.0   1_545     S
V32     V4    10.0   1_545     S
