data_osf
_audit_creation_date              2019-12-31
_audit_creation_method            'Pymatgen'
_symmetry_space_group_name_H-M    'P1'
_symmetry_Int_Tables_number       1
loop_
_symmetry_equiv_pos_as_xyz
  x,y,z
_cell_length_a                    28.1821
_cell_length_b                    36.4994
_cell_length_c                    33.4604
_cell_angle_alpha                 90.0
_cell_angle_beta                 90.0
_cell_angle_gamma                 90.0
loop_
_atom_site_label
_atom_site_type_symbol
_atom_site_fract_x
_atom_site_fract_y
_atom_site_fract_z
V1     V     0.1774   0.3251   0.125
V2     V     0.1774   0.3251   0.625
V3     V     0.1774   0.8251   0.125
V4     V     0.1774   0.8251   0.625
V5     V     0.3226   0.4249   0.375
V6     V     0.3226   0.4249   0.875
V7     V     0.3226   0.9249   0.375
V8     V     0.3226   0.9249   0.875
V9     V     0.1774   0.1749   0.375
V10     V     0.1774   0.1749   0.875
V11     V     0.1774   0.6749   0.375
V12     V     0.1774   0.6749   0.875
V13     V     0.3226   0.0751   0.125
V14     V     0.3226   0.0751   0.625
V15     V     0.3226   0.5751   0.125
V16     V     0.3226   0.5751   0.625
V17     V     0.6774   0.4249   0.375
V18     V     0.6774   0.4249   0.875
V19     V     0.6774   0.9249   0.375
V20     V     0.6774   0.9249   0.875
V21     V     0.8226   0.3251   0.125
V22     V     0.8226   0.3251   0.625
V23     V     0.8226   0.8251   0.125
V24     V     0.8226   0.8251   0.625
V25     V     0.6774   0.0751   0.125
V26     V     0.6774   0.0751   0.625
V27     V     0.6774   0.5751   0.125
V28     V     0.6774   0.5751   0.625
V29     V     0.8226   0.1749   0.375
V30     V     0.8226   0.1749   0.875
V31     V     0.8226   0.6749   0.375
V32     V     0.8226   0.6749   0.875
loop_
_geom_bond_atom_site_label_1
_geom_bond_atom_site_label_2
_geom_bond_distance
_geom_bond_site_symmetry_2
_ccdc_geom_bond_type
V1     V15    10.0   .     S
V1     V6    10.0   1_554     S
V1     V5    10.0   .     S
V1     V10    10.0   1_554     S
V1     V9    10.0   .     S
V1     V13    10.0   .     S
V1     V21    10.0   1_455     S
V2     V16    10.0   .     S
V2     V5    10.0   .     S
V2     V6    10.0   .     S
V2     V9    10.0   .     S
V2     V10    10.0   .     S
V2     V14    10.0   .     S
V2     V22    10.0   1_455     S
V3     V13    10.0   1_565     S
V3     V8    10.0   1_554     S
V3     V7    10.0   .     S
V3     V12    10.0   1_554     S
V3     V11    10.0   .     S
V3     V15    10.0   .     S
V3     V23    10.0   1_455     S
V4     V14    10.0   1_565     S
V4     V7    10.0   .     S
V4     V8    10.0   .     S
V4     V11    10.0   .     S
V4     V12    10.0   .     S
V4     V16    10.0   .     S
V4     V24    10.0   1_455     S
V5     V16    10.0   .     S
V5     V11    10.0   .     S
V5     V15    10.0   .     S
V5     V9    10.0   .     S
V5     V17    10.0   .     S
V6     V15    10.0   1_556     S
V6     V12    10.0   .     S
V6     V16    10.0   .     S
V6     V1    10.0   1_556     S
V6     V10    10.0   .     S
V6     V18    10.0   .     S
V7     V14    10.0   1_565     S
V7     V9    10.0   1_565     S
V7     V13    10.0   1_565     S
V7     V11    10.0   .     S
V7     V19    10.0   .     S
V8     V13    10.0   1_566     S
V8     V10    10.0   1_565     S
V8     V14    10.0   1_565     S
V8     V3    10.0   1_556     S
V8     V12    10.0   .     S
V8     V20    10.0   .     S
V9     V7    10.0   1_545     S
V9     V14    10.0   .     S
V9     V13    10.0   .     S
V9     V29    10.0   1_455     S
V10     V8    10.0   1_545     S
V10     V13    10.0   1_556     S
V10     V14    10.0   .     S
V10     V1    10.0   1_556     S
V10     V30    10.0   1_455     S
V11     V16    10.0   .     S
V11     V15    10.0   .     S
V11     V31    10.0   1_455     S
V12     V15    10.0   1_556     S
V12     V16    10.0   .     S
V12     V3    10.0   1_556     S
V12     V32    10.0   1_455     S
V13     V8    10.0   1_544     S
V13     V3    10.0   1_545     S
V13     V7    10.0   1_545     S
V13     V10    10.0   1_554     S
V13     V25    10.0   .     S
V14     V7    10.0   1_545     S
V14     V4    10.0   1_545     S
V14     V8    10.0   1_545     S
V14     V26    10.0   .     S
V15     V6    10.0   1_554     S
V15     V12    10.0   1_554     S
V15     V27    10.0   .     S
V16     V28    10.0   .     S
V17     V28    10.0   .     S
V17     V31    10.0   .     S
V17     V27    10.0   .     S
V17     V22    10.0   .     S
V17     V21    10.0   .     S
V17     V29    10.0   .     S
V18     V27    10.0   1_556     S
V18     V32    10.0   .     S
V18     V28    10.0   .     S
V18     V21    10.0   1_556     S
V18     V22    10.0   .     S
V18     V30    10.0   .     S
V19     V26    10.0   1_565     S
V19     V29    10.0   1_565     S
V19     V25    10.0   1_565     S
V19     V24    10.0   .     S
V19     V23    10.0   .     S
V19     V31    10.0   .     S
V20     V25    10.0   1_566     S
V20     V30    10.0   1_565     S
V20     V26    10.0   1_565     S
V20     V23    10.0   1_556     S
V20     V24    10.0   .     S
V20     V32    10.0   .     S
V21     V27    10.0   .     S
V21     V18    10.0   1_554     S
V21     V30    10.0   1_554     S
V21     V25    10.0   .     S
V21     V29    10.0   .     S
V21     V1    10.0   1_655     S
V22     V28    10.0   .     S
V22     V29    10.0   .     S
V22     V26    10.0   .     S
V22     V30    10.0   .     S
V22     V2    10.0   1_655     S
V23     V25    10.0   1_565     S
V23     V20    10.0   1_554     S
V23     V32    10.0   1_554     S
V23     V27    10.0   .     S
V23     V31    10.0   .     S
V23     V3    10.0   1_655     S
V24     V26    10.0   1_565     S
V24     V31    10.0   .     S
V24     V28    10.0   .     S
V24     V32    10.0   .     S
V24     V4    10.0   1_655     S
V25     V20    10.0   1_544     S
V25     V23    10.0   1_545     S
V25     V19    10.0   1_545     S
V25     V29    10.0   .     S
V25     V30    10.0   1_554     S
V26     V19    10.0   1_545     S
V26     V24    10.0   1_545     S
V26     V20    10.0   1_545     S
V26     V30    10.0   .     S
V26     V29    10.0   .     S
V27     V18    10.0   1_554     S
V27     V31    10.0   .     S
V27     V32    10.0   1_554     S
V28     V32    10.0   .     S
V28     V31    10.0   .     S
V29     V19    10.0   1_545     S
V29     V9    10.0   1_655     S
V30     V20    10.0   1_545     S
V30     V25    10.0   1_556     S
V30     V21    10.0   1_556     S
V30     V10    10.0   1_655     S
V31     V11    10.0   1_655     S
V32     V27    10.0   1_556     S
V32     V23    10.0   1_556     S
V32     V12    10.0   1_655     S
