data_pfm
_audit_creation_date              2019-12-31
_audit_creation_method            'Pymatgen'
_symmetry_space_group_name_H-M    'P1'
_symmetry_Int_Tables_number       1
loop_
_symmetry_equiv_pos_as_xyz
  x,y,z
_cell_length_a                    28.2842
_cell_length_b                    28.2842
_cell_length_c                    28.2843
_cell_angle_alpha                 90.0
_cell_angle_beta                 90.0
_cell_angle_gamma                 90.0
loop_
_atom_site_label
_atom_site_type_symbol
_atom_site_fract_x
_atom_site_fract_y
_atom_site_fract_z
V1     V     0.25   0.25   0.5
V2     V     0.25   0.75   0.5
V3     V     0.75   0.25   0.5
V4     V     0.75   0.75   0.5
Er5     Er     0.0   0.0   0.5
Er6     Er     0.0   0.5   0.5
Er7     Er     0.5   0.0   0.5
Er8     Er     0.5   0.5   0.5
V9     V     0.0   0.0   0.0
V10     V     0.0   0.5   0.0
V11     V     0.5   0.0   0.0
V12     V     0.5   0.5   0.0
Er13     Er     0.25   0.25   0.0
Er14     Er     0.25   0.75   0.0
Er15     Er     0.75   0.25   0.0
Er16     Er     0.75   0.75   0.0
Ti17     Ti     0.0   0.25   0.25
Ti18     Ti     0.0   0.75   0.25
Ti19     Ti     0.5   0.25   0.25
Ti20     Ti     0.5   0.75   0.25
Ti21     Ti     0.25   0.0   0.25
Ti22     Ti     0.25   0.5   0.25
Ti23     Ti     0.75   0.0   0.25
Ti24     Ti     0.75   0.5   0.25
Ti25     Ti     0.0   0.25   0.75
Ti26     Ti     0.0   0.75   0.75
Ti27     Ti     0.5   0.25   0.75
Ti28     Ti     0.5   0.75   0.75
Ti29     Ti     0.25   0.0   0.75
Ti30     Ti     0.25   0.5   0.75
Ti31     Ti     0.75   0.0   0.75
Ti32     Ti     0.75   0.5   0.75
loop_
_geom_bond_atom_site_label_1
_geom_bond_atom_site_label_2
_geom_bond_distance
_geom_bond_site_symmetry_2
_ccdc_geom_bond_type
V1     Ti21    10.0   .     S
V1     Ti19    10.0   .     S
V1     Ti22    10.0   .     S
V1     Ti17    10.0   .     S
V1     Er8    10.0   .     S
V1     Er6    10.0   .     S
V1     Er5    10.0   .     S
V1     Er7    10.0   .     S
V1     Ti30    10.0   .     S
V1     Ti25    10.0   .     S
V1     Ti29    10.0   .     S
V1     Ti27    10.0   .     S
V2     Ti22    10.0   .     S
V2     Ti20    10.0   .     S
V2     Ti21    10.0   1_565     S
V2     Ti18    10.0   .     S
V2     Er7    10.0   1_565     S
V2     Er5    10.0   1_565     S
V2     Er6    10.0   .     S
V2     Er8    10.0   .     S
V2     Ti29    10.0   1_565     S
V2     Ti26    10.0   .     S
V2     Ti30    10.0   .     S
V2     Ti28    10.0   .     S
V3     Ti23    10.0   .     S
V3     Ti17    10.0   1_655     S
V3     Ti24    10.0   .     S
V3     Ti19    10.0   .     S
V3     Er6    10.0   1_655     S
V3     Er8    10.0   .     S
V3     Er7    10.0   .     S
V3     Er5    10.0   1_655     S
V3     Ti32    10.0   .     S
V3     Ti27    10.0   .     S
V3     Ti31    10.0   .     S
V3     Ti25    10.0   1_655     S
V4     Ti24    10.0   .     S
V4     Ti18    10.0   1_655     S
V4     Ti23    10.0   1_565     S
V4     Ti20    10.0   .     S
V4     Er5    10.0   1_665     S
V4     Er7    10.0   1_565     S
V4     Er8    10.0   .     S
V4     Er6    10.0   1_655     S
V4     Ti31    10.0   1_565     S
V4     Ti28    10.0   .     S
V4     Ti32    10.0   .     S
V4     Ti26    10.0   1_655     S
Er5     V4    10.0   1_445     S
Er5     V2    10.0   1_545     S
Er5     V3    10.0   1_455     S
Er6     V3    10.0   1_455     S
Er6     V4    10.0   1_455     S
Er7     V2    10.0   1_545     S
Er7     V4    10.0   1_545     S
V9     Ti26    10.0   1_544     S
V9     Ti29    10.0   1_554     S
V9     Ti25    10.0   1_554     S
V9     Ti31    10.0   1_454     S
V9     Er13    10.0   .     S
V9     Er15    10.0   1_455     S
V9     Er16    10.0   1_445     S
V9     Er14    10.0   1_545     S
V9     Ti17    10.0   .     S
V9     Ti23    10.0   1_455     S
V9     Ti18    10.0   1_545     S
V9     Ti21    10.0   .     S
V10     Ti25    10.0   1_554     S
V10     Ti30    10.0   1_554     S
V10     Ti26    10.0   1_554     S
V10     Ti32    10.0   1_454     S
V10     Er14    10.0   .     S
V10     Er16    10.0   1_455     S
V10     Er15    10.0   1_455     S
V10     Er13    10.0   .     S
V10     Ti18    10.0   .     S
V10     Ti24    10.0   1_455     S
V10     Ti17    10.0   .     S
V10     Ti22    10.0   .     S
V11     Ti28    10.0   1_544     S
V11     Ti31    10.0   1_554     S
V11     Ti27    10.0   1_554     S
V11     Ti29    10.0   1_554     S
V11     Er15    10.0   .     S
V11     Er13    10.0   .     S
V11     Er14    10.0   1_545     S
V11     Er16    10.0   1_545     S
V11     Ti19    10.0   .     S
V11     Ti21    10.0   .     S
V11     Ti20    10.0   1_545     S
V11     Ti23    10.0   .     S
V12     Ti27    10.0   1_554     S
V12     Ti32    10.0   1_554     S
V12     Ti28    10.0   1_554     S
V12     Ti30    10.0   1_554     S
V12     Er16    10.0   .     S
V12     Er14    10.0   .     S
V12     Er13    10.0   .     S
V12     Er15    10.0   .     S
V12     Ti20    10.0   .     S
V12     Ti22    10.0   .     S
V12     Ti19    10.0   .     S
V12     Ti24    10.0   .     S
Er14     V11    10.0   1_565     S
Er14     V9    10.0   1_565     S
Er15     V9    10.0   1_655     S
Er15     V10    10.0   1_655     S
Er16     V10    10.0   1_655     S
Er16     V9    10.0   1_665     S
Er16     V11    10.0   1_565     S
Ti17     V3    10.0   1_455     S
Ti18     V4    10.0   1_455     S
Ti18     V9    10.0   1_565     S
Ti20     V11    10.0   1_565     S
Ti21     V2    10.0   1_545     S
Ti23     V4    10.0   1_545     S
Ti23     V9    10.0   1_655     S
Ti24     V10    10.0   1_655     S
Ti25     V3    10.0   1_455     S
Ti25     V10    10.0   1_556     S
Ti25     V9    10.0   1_556     S
Ti26     V4    10.0   1_455     S
Ti26     V9    10.0   1_566     S
Ti26     V10    10.0   1_556     S
Ti27     V12    10.0   1_556     S
Ti27     V11    10.0   1_556     S
Ti28     V11    10.0   1_566     S
Ti28     V12    10.0   1_556     S
Ti29     V2    10.0   1_545     S
Ti29     V9    10.0   1_556     S
Ti29     V11    10.0   1_556     S
Ti30     V10    10.0   1_556     S
Ti30     V12    10.0   1_556     S
Ti31     V4    10.0   1_545     S
Ti31     V11    10.0   1_556     S
Ti31     V9    10.0   1_656     S
Ti32     V12    10.0   1_556     S
Ti32     V10    10.0   1_656     S
