data_psp
_audit_creation_date              2019-12-31
_audit_creation_method            'Pymatgen'
_symmetry_space_group_name_H-M    'P1'
_symmetry_Int_Tables_number       1
loop_
_symmetry_equiv_pos_as_xyz
  x,y,z
_cell_length_a                    28.1942
_cell_length_b                    28.1942
_cell_length_c                    28.5534
_cell_angle_alpha                 90.0
_cell_angle_beta                 90.0
_cell_angle_gamma                 90.0
loop_
_atom_site_label
_atom_site_type_symbol
_atom_site_fract_x
_atom_site_fract_y
_atom_site_fract_z
Er1     Er     0.0   0.25   0.5
Er2     Er     0.0   0.75   0.5
Er3     Er     0.5   0.25   0.5
Er4     Er     0.5   0.75   0.5
V5     V     0.0   0.0   0.75
V6     V     0.0   0.5   0.75
V7     V     0.5   0.0   0.75
V8     V     0.5   0.5   0.75
Ti9     Ti     0.25   0.25   0.75
Ti10     Ti     0.25   0.75   0.75
Ti11     Ti     0.75   0.25   0.75
Ti12     Ti     0.75   0.75   0.75
Er13     Er     0.25   0.0   0.0
Er14     Er     0.25   0.5   0.0
Er15     Er     0.75   0.0   0.0
Er16     Er     0.75   0.5   0.0
V17     V     0.0   0.0   0.25
V18     V     0.0   0.5   0.25
V19     V     0.5   0.0   0.25
V20     V     0.5   0.5   0.25
Ti21     Ti     0.25   0.25   0.25
Ti22     Ti     0.25   0.75   0.25
Ti23     Ti     0.75   0.25   0.25
Ti24     Ti     0.75   0.75   0.25
loop_
_geom_bond_atom_site_label_1
_geom_bond_atom_site_label_2
_geom_bond_distance
_geom_bond_site_symmetry_2
_ccdc_geom_bond_type
Er1     Ti11    10.032   1_455     S
Er1     Ti23    10.032   1_455     S
Er1     Ti21    10.032   .     S
Er1     Ti9    10.032   .     S
Er2     Ti12    10.032   1_455     S
Er2     Ti24    10.032   1_455     S
Er2     Ti22    10.032   .     S
Er2     Ti10    10.032   .     S
Er3     Ti9    10.032   .     S
Er3     Ti21    10.032   .     S
Er3     Ti23    10.032   .     S
Er3     Ti11    10.032   .     S
Er4     Ti10    10.032   .     S
Er4     Ti22    10.032   .     S
Er4     Ti24    10.032   .     S
Er4     Ti12    10.032   .     S
V5     Ti12    9.968   1_445     S
V5     Ti9    9.968   .     S
V5     Ti11    9.968   1_455     S
V5     Ti10    9.968   1_545     S
V6     Ti11    9.968   1_455     S
V6     Ti10    9.968   .     S
V6     Ti12    9.968   1_455     S
V6     Ti9    9.968   .     S
V7     Ti10    9.968   1_545     S
V7     Ti11    9.968   .     S
V7     Ti9    9.968   .     S
V7     Ti12    9.968   1_545     S
V8     Ti9    9.968   .     S
V8     Ti12    9.968   .     S
V8     Ti10    9.968   .     S
V8     Ti11    9.968   .     S
Ti9     Er14    10.032   1_556     S
Ti9     Er13    10.032   1_556     S
Ti10     V7    9.968   1_565     S
Ti10     V5    9.968   1_565     S
Ti10     Er13    10.032   1_566     S
Ti10     Er14    10.032   1_556     S
Ti11     V6    9.968   1_655     S
Ti11     V5    9.968   1_655     S
Ti11     Er1    10.032   1_655     S
Ti11     Er16    10.032   1_556     S
Ti11     Er15    10.032   1_556     S
Ti12     V5    9.968   1_665     S
Ti12     V6    9.968   1_655     S
Ti12     V7    9.968   1_565     S
Ti12     Er2    10.032   1_655     S
Ti12     Er15    10.032   1_566     S
Ti12     Er16    10.032   1_556     S
Er13     Ti10    10.032   1_544     S
Er13     Ti9    10.032   1_554     S
Er13     Ti22    10.032   1_545     S
Er13     Ti21    10.032   .     S
Er14     Ti9    10.032   1_554     S
Er14     Ti10    10.032   1_554     S
Er14     Ti21    10.032   .     S
Er14     Ti22    10.032   .     S
Er15     Ti12    10.032   1_544     S
Er15     Ti11    10.032   1_554     S
Er15     Ti24    10.032   1_545     S
Er15     Ti23    10.032   .     S
Er16     Ti11    10.032   1_554     S
Er16     Ti12    10.032   1_554     S
Er16     Ti23    10.032   .     S
Er16     Ti24    10.032   .     S
V17     Ti24    9.968   1_445     S
V17     Ti21    9.968   .     S
V17     Ti22    9.968   1_545     S
V17     Ti23    9.968   1_455     S
V18     Ti23    9.968   1_455     S
V18     Ti22    9.968   .     S
V18     Ti21    9.968   .     S
V18     Ti24    9.968   1_455     S
V19     Ti22    9.968   1_545     S
V19     Ti23    9.968   .     S
V19     Ti24    9.968   1_545     S
V19     Ti21    9.968   .     S
V20     Ti21    9.968   .     S
V20     Ti24    9.968   .     S
V20     Ti23    9.968   .     S
V20     Ti22    9.968   .     S
Ti22     V19    9.968   1_565     S
Ti22     V17    9.968   1_565     S
Ti22     Er13    10.032   1_565     S
Ti23     V18    9.968   1_655     S
Ti23     V17    9.968   1_655     S
Ti23     Er1    10.032   1_655     S
Ti24     V17    9.968   1_665     S
Ti24     V19    9.968   1_565     S
Ti24     V18    9.968   1_655     S
Ti24     Er2    10.032   1_655     S
Ti24     Er15    10.032   1_565     S
