data_pte
_audit_creation_date              2019-12-31
_audit_creation_method            'Pymatgen'
_symmetry_space_group_name_H-M    'P1'
_symmetry_Int_Tables_number       1
loop_
_symmetry_equiv_pos_as_xyz
  x,y,z
_cell_length_a                    30.0
_cell_length_b                    41.579
_cell_length_c                    31.8046
_cell_angle_alpha                 90.0
_cell_angle_beta                 90.0
_cell_angle_gamma                 90.0
loop_
_atom_site_label
_atom_site_type_symbol
_atom_site_fract_x
_atom_site_fract_y
_atom_site_fract_z
V1     V     0.0   0.6459   0.0
V2     V     0.0   0.6459   0.5
V3     V     0.3333   0.6459   0.0
V4     V     0.3333   0.6459   0.5
V5     V     0.6667   0.6459   0.0
V6     V     0.6667   0.6459   0.5
V7     V     0.1667   0.8541   0.0
V8     V     0.1667   0.8541   0.5
V9     V     0.5   0.8541   0.0
V10     V     0.5   0.8541   0.5
V11     V     0.8333   0.8541   0.0
V12     V     0.8333   0.8541   0.5
Er13     Er     0.0   0.5   0.25
Er14     Er     0.0   0.5   0.75
Er15     Er     0.3333   0.5   0.25
Er16     Er     0.3333   0.5   0.75
Er17     Er     0.6667   0.5   0.25
Er18     Er     0.6667   0.5   0.75
Er19     Er     0.1667   0.0   0.25
Er20     Er     0.1667   0.0   0.75
Er21     Er     0.5   0.0   0.25
Er22     Er     0.5   0.0   0.75
Er23     Er     0.8333   0.0   0.25
Er24     Er     0.8333   0.0   0.75
V25     V     0.1667   0.1459   0.0
V26     V     0.1667   0.1459   0.5
V27     V     0.5   0.1459   0.0
V28     V     0.5   0.1459   0.5
V29     V     0.8333   0.1459   0.0
V30     V     0.8333   0.1459   0.5
V31     V     0.0   0.3541   0.0
V32     V     0.0   0.3541   0.5
V33     V     0.3333   0.3541   0.0
V34     V     0.3333   0.3541   0.5
V35     V     0.6667   0.3541   0.0
V36     V     0.6667   0.3541   0.5
loop_
_geom_bond_atom_site_label_1
_geom_bond_atom_site_label_2
_geom_bond_distance
_geom_bond_site_symmetry_2
_ccdc_geom_bond_type
V1     V11    10.0   1_455     S
V1     V7    10.0   .     S
V1     Er13    10.0   .     S
V1     Er14    10.0   1_554     S
V2     V12    10.0   1_455     S
V2     V8    10.0   .     S
V2     Er14    10.0   .     S
V2     Er13    10.0   .     S
V3     V7    10.0   .     S
V3     V9    10.0   .     S
V3     Er15    10.0   .     S
V3     Er16    10.0   1_554     S
V4     V8    10.0   .     S
V4     V10    10.0   .     S
V4     Er16    10.0   .     S
V4     Er15    10.0   .     S
V5     V9    10.0   .     S
V5     V11    10.0   .     S
V5     Er17    10.0   .     S
V5     Er18    10.0   1_554     S
V6     V10    10.0   .     S
V6     V12    10.0   .     S
V6     Er18    10.0   .     S
V6     Er17    10.0   .     S
V7     Er19    10.0   1_565     S
V7     Er20    10.0   1_564     S
V8     Er20    10.0   1_565     S
V8     Er19    10.0   1_565     S
V9     Er21    10.0   1_565     S
V9     Er22    10.0   1_564     S
V10     Er22    10.0   1_565     S
V10     Er21    10.0   1_565     S
V11     V1    10.0   1_655     S
V11     Er23    10.0   1_565     S
V11     Er24    10.0   1_564     S
V12     V2    10.0   1_655     S
V12     Er24    10.0   1_565     S
V12     Er23    10.0   1_565     S
Er13     Er15    10.0   .     S
Er13     Er17    10.0   1_455     S
Er13     V32    10.0   .     S
Er13     V31    10.0   .     S
Er14     Er16    10.0   .     S
Er14     Er18    10.0   1_455     S
Er14     V1    10.0   1_556     S
Er14     V31    10.0   1_556     S
Er14     V32    10.0   .     S
Er15     Er17    10.0   .     S
Er15     V34    10.0   .     S
Er15     V33    10.0   .     S
Er16     Er18    10.0   .     S
Er16     V3    10.0   1_556     S
Er16     V33    10.0   1_556     S
Er16     V34    10.0   .     S
Er17     Er13    10.0   1_655     S
Er17     V36    10.0   .     S
Er17     V35    10.0   .     S
Er18     Er14    10.0   1_655     S
Er18     V5    10.0   1_556     S
Er18     V35    10.0   1_556     S
Er18     V36    10.0   .     S
Er19     V7    10.0   1_545     S
Er19     V8    10.0   1_545     S
Er19     Er23    10.0   1_455     S
Er19     Er21    10.0   .     S
Er19     V25    10.0   .     S
Er19     V26    10.0   .     S
Er20     V8    10.0   1_545     S
Er20     V7    10.0   1_546     S
Er20     Er24    10.0   1_455     S
Er20     Er22    10.0   .     S
Er20     V26    10.0   .     S
Er20     V25    10.0   1_556     S
Er21     V9    10.0   1_545     S
Er21     V10    10.0   1_545     S
Er21     Er23    10.0   .     S
Er21     V27    10.0   .     S
Er21     V28    10.0   .     S
Er22     V10    10.0   1_545     S
Er22     V9    10.0   1_546     S
Er22     Er24    10.0   .     S
Er22     V28    10.0   .     S
Er22     V27    10.0   1_556     S
Er23     V11    10.0   1_545     S
Er23     V12    10.0   1_545     S
Er23     Er19    10.0   1_655     S
Er23     V29    10.0   .     S
Er23     V30    10.0   .     S
Er24     V12    10.0   1_545     S
Er24     V11    10.0   1_546     S
Er24     Er20    10.0   1_655     S
Er24     V30    10.0   .     S
Er24     V29    10.0   1_556     S
V25     V31    10.0   .     S
V25     V33    10.0   .     S
V25     Er20    10.0   1_554     S
V26     V32    10.0   .     S
V26     V34    10.0   .     S
V27     V33    10.0   .     S
V27     V35    10.0   .     S
V27     Er22    10.0   1_554     S
V28     V34    10.0   .     S
V28     V36    10.0   .     S
V29     V35    10.0   .     S
V29     V31    10.0   1_655     S
V29     Er24    10.0   1_554     S
V30     V36    10.0   .     S
V30     V32    10.0   1_655     S
V31     V29    10.0   1_455     S
V31     Er14    10.0   1_554     S
V32     V30    10.0   1_455     S
V33     Er16    10.0   1_554     S
V35     Er18    10.0   1_554     S
