data_pti
_audit_creation_date              2019-12-31
_audit_creation_method            'Pymatgen'
_symmetry_space_group_name_H-M    'P1'
_symmetry_Int_Tables_number       1
loop_
_symmetry_equiv_pos_as_xyz
  x,y,z
_cell_length_a                    46.5042
_cell_length_b                    30.8355
_cell_length_c                    30.3684
_cell_angle_alpha                 90.0
_cell_angle_beta                 90.0
_cell_angle_gamma                 90.0
loop_
_atom_site_label
_atom_site_type_symbol
_atom_site_fract_x
_atom_site_fract_y
_atom_site_fract_z
Er1     Er     0.5   0.0   0.25
Er2     Er     0.5   0.0   0.75
Ti3     Ti     0.3603   0.0   0.0
Ti4     Ti     0.3603   0.0   0.5
Ti5     Ti     0.6398   0.0   0.0
Ti6     Ti     0.6398   0.0   0.5
Er7     Er     0.5   0.5   0.25
Er8     Er     0.5   0.5   0.75
Ti9     Ti     0.3603   0.5   0.0
Ti10     Ti     0.3603   0.5   0.5
Ti11     Ti     0.6398   0.5   0.0
Ti12     Ti     0.6398   0.5   0.5
Er13     Er     0.0   0.5   0.0
Er14     Er     0.0   0.5   0.5
Ti15     Ti     0.1398   0.5   0.25
Ti16     Ti     0.1398   0.5   0.75
Ti17     Ti     0.8602   0.5   0.25
Ti18     Ti     0.8602   0.5   0.75
Er19     Er     0.0   0.0   0.0
Er20     Er     0.0   0.0   0.5
Ti21     Ti     0.1398   0.0   0.25
Ti22     Ti     0.1398   0.0   0.75
Ti23     Ti     0.8602   0.0   0.25
Ti24     Ti     0.8602   0.0   0.75
V25     V     0.75   0.25   0.375
V26     V     0.75   0.25   0.875
V27     V     0.75   0.75   0.125
V28     V     0.75   0.75   0.625
V29     V     0.25   0.25   0.375
V30     V     0.25   0.25   0.875
V31     V     0.25   0.75   0.125
V32     V     0.25   0.75   0.625
loop_
_geom_bond_atom_site_label_1
_geom_bond_atom_site_label_2
_geom_bond_distance
_geom_bond_site_symmetry_2
_ccdc_geom_bond_type
Er1     Ti5    9.994   .     S
Er1     Ti4    9.994   .     S
Er1     Ti3    9.994   .     S
Er1     Ti6    9.994   .     S
Er2     Ti6    9.994   .     S
Er2     Ti3    9.994   1_556     S
Er2     Ti4    9.994   .     S
Er2     Ti5    9.994   1_556     S
Ti3     Er2    9.994   1_554     S
Ti3     V30    10.006   1_554     S
Ti3     V31    10.006   1_545     S
Ti4     V29    10.006   .     S
Ti4     V32    10.006   1_545     S
Ti5     Er2    9.994   1_554     S
Ti5     V27    10.006   1_545     S
Ti5     V26    10.006   1_554     S
Ti6     V28    10.006   1_545     S
Ti6     V25    10.006   .     S
Er7     Ti11    9.994   .     S
Er7     Ti12    9.994   .     S
Er7     Ti9    9.994   .     S
Er7     Ti10    9.994   .     S
Er8     Ti12    9.994   .     S
Er8     Ti11    9.994   1_556     S
Er8     Ti10    9.994   .     S
Er8     Ti9    9.994   1_556     S
Ti9     Er8    9.994   1_554     S
Ti9     V31    10.006   .     S
Ti9     V30    10.006   1_554     S
Ti10     V32    10.006   .     S
Ti10     V29    10.006   .     S
Ti11     Er8    9.994   1_554     S
Ti11     V26    10.006   1_554     S
Ti11     V27    10.006   .     S
Ti12     V25    10.006   .     S
Ti12     V28    10.006   .     S
Er13     Ti17    9.994   1_455     S
Er13     Ti18    9.994   1_454     S
Er13     Ti16    9.994   1_554     S
Er13     Ti15    9.994   .     S
Er14     Ti18    9.994   1_455     S
Er14     Ti17    9.994   1_455     S
Er14     Ti15    9.994   .     S
Er14     Ti16    9.994   .     S
Ti15     V29    10.006   .     S
Ti15     V31    10.006   .     S
Ti16     Er13    9.994   1_556     S
Ti16     V30    10.006   .     S
Ti16     V32    10.006   .     S
Ti17     Er13    9.994   1_655     S
Ti17     Er14    9.994   1_655     S
Ti17     V27    10.006   .     S
Ti17     V25    10.006   .     S
Ti18     Er14    9.994   1_655     S
Ti18     Er13    9.994   1_656     S
Ti18     V28    10.006   .     S
Ti18     V26    10.006   .     S
Er19     Ti23    9.994   1_455     S
Er19     Ti24    9.994   1_454     S
Er19     Ti22    9.994   1_554     S
Er19     Ti21    9.994   .     S
Er20     Ti24    9.994   1_455     S
Er20     Ti23    9.994   1_455     S
Er20     Ti21    9.994   .     S
Er20     Ti22    9.994   .     S
Ti21     V29    10.006   .     S
Ti21     V31    10.006   1_545     S
Ti22     Er19    9.994   1_556     S
Ti22     V30    10.006   .     S
Ti22     V32    10.006   1_545     S
Ti23     Er19    9.994   1_655     S
Ti23     Er20    9.994   1_655     S
Ti23     V25    10.006   .     S
Ti23     V27    10.006   1_545     S
Ti24     Er20    9.994   1_655     S
Ti24     Er19    9.994   1_656     S
Ti24     V26    10.006   .     S
Ti24     V28    10.006   1_545     S
V26     Ti5    10.006   1_556     S
V26     Ti11    10.006   1_556     S
V27     Ti5    10.006   1_565     S
V27     Ti23    10.006   1_565     S
V28     Ti6    10.006   1_565     S
V28     Ti24    10.006   1_565     S
V30     Ti3    10.006   1_556     S
V30     Ti9    10.006   1_556     S
V31     Ti3    10.006   1_565     S
V31     Ti21    10.006   1_565     S
V32     Ti4    10.006   1_565     S
V32     Ti22    10.006   1_565     S
