data_pts-e
_audit_creation_date              2019-12-31
_audit_creation_method            'Pymatgen'
_symmetry_space_group_name_H-M    'P1'
_symmetry_Int_Tables_number       1
loop_
_symmetry_equiv_pos_as_xyz
  x,y,z
_cell_length_a                    40.0
_cell_length_b                    40.0
_cell_length_c                    34.1421
_cell_angle_alpha                 90.0
_cell_angle_beta                 90.0
_cell_angle_gamma                 90.0
loop_
_atom_site_label
_atom_site_type_symbol
_atom_site_fract_x
_atom_site_fract_y
_atom_site_fract_z
V1     V     0.125   0.0   0.1464
V2     V     0.125   0.5   0.1464
V3     V     0.625   0.0   0.1464
V4     V     0.625   0.5   0.1464
V5     V     0.0   0.125   0.3535
V6     V     0.0   0.625   0.3535
V7     V     0.5   0.125   0.3535
V8     V     0.5   0.625   0.3535
V9     V     0.0   0.375   0.3535
V10     V     0.0   0.875   0.3535
V11     V     0.5   0.375   0.3535
V12     V     0.5   0.875   0.3535
V13     V     0.375   0.0   0.1464
V14     V     0.375   0.5   0.1464
V15     V     0.875   0.0   0.1464
V16     V     0.875   0.5   0.1464
V17     V     0.125   0.0   0.8536
V18     V     0.125   0.5   0.8536
V19     V     0.625   0.0   0.8536
V20     V     0.625   0.5   0.8536
V21     V     0.0   0.375   0.6464
V22     V     0.0   0.875   0.6464
V23     V     0.5   0.375   0.6464
V24     V     0.5   0.875   0.6464
V25     V     0.375   0.0   0.8536
V26     V     0.375   0.5   0.8536
V27     V     0.875   0.0   0.8536
V28     V     0.875   0.5   0.8536
V29     V     0.0   0.125   0.6464
V30     V     0.0   0.625   0.6464
V31     V     0.5   0.125   0.6464
V32     V     0.5   0.625   0.6464
loop_
_geom_bond_atom_site_label_1
_geom_bond_atom_site_label_2
_geom_bond_distance
_geom_bond_site_symmetry_2
_ccdc_geom_bond_type
V1     V5    10.0   .     S
V1     V10    10.0   1_545     S
V1     V15    10.0   1_455     S
V1     V13    10.0   .     S
V1     V17    10.0   1_554     S
V2     V6    10.0   .     S
V2     V9    10.0   .     S
V2     V16    10.0   1_455     S
V2     V14    10.0   .     S
V2     V18    10.0   1_554     S
V3     V7    10.0   .     S
V3     V12    10.0   1_545     S
V3     V13    10.0   .     S
V3     V15    10.0   .     S
V3     V19    10.0   1_554     S
V4     V8    10.0   .     S
V4     V11    10.0   .     S
V4     V14    10.0   .     S
V4     V16    10.0   .     S
V4     V20    10.0   1_554     S
V5     V15    10.0   1_455     S
V5     V10    10.0   1_545     S
V5     V9    10.0   .     S
V5     V29    10.0   .     S
V6     V16    10.0   1_455     S
V6     V9    10.0   .     S
V6     V10    10.0   .     S
V6     V30    10.0   .     S
V7     V13    10.0   .     S
V7     V12    10.0   1_545     S
V7     V11    10.0   .     S
V7     V31    10.0   .     S
V8     V14    10.0   .     S
V8     V11    10.0   .     S
V8     V12    10.0   .     S
V8     V32    10.0   .     S
V9     V16    10.0   1_455     S
V9     V21    10.0   .     S
V10     V1    10.0   1_565     S
V10     V15    10.0   1_465     S
V10     V5    10.0   1_565     S
V10     V22    10.0   .     S
V11     V14    10.0   .     S
V11     V23    10.0   .     S
V12     V3    10.0   1_565     S
V12     V13    10.0   1_565     S
V12     V7    10.0   1_565     S
V12     V24    10.0   .     S
V13     V12    10.0   1_545     S
V13     V25    10.0   1_554     S
V14     V26    10.0   1_554     S
V15     V10    10.0   1_645     S
V15     V5    10.0   1_655     S
V15     V1    10.0   1_655     S
V15     V27    10.0   1_554     S
V16     V9    10.0   1_655     S
V16     V6    10.0   1_655     S
V16     V2    10.0   1_655     S
V16     V28    10.0   1_554     S
V17     V22    10.0   1_545     S
V17     V29    10.0   .     S
V17     V27    10.0   1_455     S
V17     V25    10.0   .     S
V17     V1    10.0   1_556     S
V18     V21    10.0   .     S
V18     V30    10.0   .     S
V18     V28    10.0   1_455     S
V18     V26    10.0   .     S
V18     V2    10.0   1_556     S
V19     V24    10.0   1_545     S
V19     V31    10.0   .     S
V19     V25    10.0   .     S
V19     V27    10.0   .     S
V19     V3    10.0   1_556     S
V20     V23    10.0   .     S
V20     V32    10.0   .     S
V20     V26    10.0   .     S
V20     V28    10.0   .     S
V20     V4    10.0   1_556     S
V21     V28    10.0   1_455     S
V21     V30    10.0   .     S
V21     V29    10.0   .     S
V22     V17    10.0   1_565     S
V22     V27    10.0   1_465     S
V22     V29    10.0   1_565     S
V22     V30    10.0   .     S
V23     V26    10.0   .     S
V23     V32    10.0   .     S
V23     V31    10.0   .     S
V24     V19    10.0   1_565     S
V24     V25    10.0   1_565     S
V24     V31    10.0   1_565     S
V24     V32    10.0   .     S
V25     V24    10.0   1_545     S
V25     V31    10.0   .     S
V25     V13    10.0   1_556     S
V26     V32    10.0   .     S
V26     V14    10.0   1_556     S
V27     V22    10.0   1_645     S
V27     V29    10.0   1_655     S
V27     V17    10.0   1_655     S
V27     V15    10.0   1_556     S
V28     V21    10.0   1_655     S
V28     V30    10.0   1_655     S
V28     V18    10.0   1_655     S
V28     V16    10.0   1_556     S
V29     V27    10.0   1_455     S
V29     V22    10.0   1_545     S
V30     V28    10.0   1_455     S
V31     V24    10.0   1_545     S
