data_pts-x
_audit_creation_date              2019-12-31
_audit_creation_method            'Pymatgen'
_symmetry_space_group_name_H-M    'P1'
_symmetry_Int_Tables_number       1
loop_
_symmetry_equiv_pos_as_xyz
  x,y,z
_cell_length_a                    34.641
_cell_length_b                    34.641
_cell_length_c                    40.0
_cell_angle_alpha                 90.0
_cell_angle_beta                 90.0
_cell_angle_gamma                 90.0
loop_
_atom_site_label
_atom_site_type_symbol
_atom_site_fract_x
_atom_site_fract_y
_atom_site_fract_z
V1     V     0.0   0.0   0.125
V2     V     0.0   0.0   0.625
V3     V     0.0   0.5   0.125
V4     V     0.0   0.5   0.625
V5     V     0.5   0.0   0.125
V6     V     0.5   0.0   0.625
V7     V     0.5   0.5   0.125
V8     V     0.5   0.5   0.625
Er9     Er     0.0   0.25   0.0
Er10     Er     0.0   0.25   0.5
Er11     Er     0.0   0.75   0.0
Er12     Er     0.0   0.75   0.5
Er13     Er     0.5   0.25   0.0
Er14     Er     0.5   0.25   0.5
Er15     Er     0.5   0.75   0.0
Er16     Er     0.5   0.75   0.5
V17     V     0.0   0.0   0.375
V18     V     0.0   0.0   0.875
V19     V     0.0   0.5   0.375
V20     V     0.0   0.5   0.875
V21     V     0.5   0.0   0.375
V22     V     0.5   0.0   0.875
V23     V     0.5   0.5   0.375
V24     V     0.5   0.5   0.875
Er25     Er     0.25   0.0   0.25
Er26     Er     0.25   0.0   0.75
Er27     Er     0.25   0.5   0.25
Er28     Er     0.25   0.5   0.75
Er29     Er     0.75   0.0   0.25
Er30     Er     0.75   0.0   0.75
Er31     Er     0.75   0.5   0.25
Er32     Er     0.75   0.5   0.75
loop_
_geom_bond_atom_site_label_1
_geom_bond_atom_site_label_2
_geom_bond_distance
_geom_bond_site_symmetry_2
_ccdc_geom_bond_type
V1     Er9    10.0   .     S
V1     Er11    10.0   1_545     S
V1     Er25    10.0   .     S
V1     Er29    10.0   1_455     S
V1     V17    10.0   .     S
V1     V18    10.0   1_554     S
V2     Er10    10.0   .     S
V2     Er12    10.0   1_545     S
V2     Er26    10.0   .     S
V2     Er30    10.0   1_455     S
V2     V18    10.0   .     S
V2     V17    10.0   .     S
V3     Er11    10.0   .     S
V3     Er9    10.0   .     S
V3     Er27    10.0   .     S
V3     Er31    10.0   1_455     S
V3     V19    10.0   .     S
V3     V20    10.0   1_554     S
V4     Er12    10.0   .     S
V4     Er10    10.0   .     S
V4     Er28    10.0   .     S
V4     Er32    10.0   1_455     S
V4     V20    10.0   .     S
V4     V19    10.0   .     S
V5     Er13    10.0   .     S
V5     Er15    10.0   1_545     S
V5     Er29    10.0   .     S
V5     Er25    10.0   .     S
V5     V21    10.0   .     S
V5     V22    10.0   1_554     S
V6     Er14    10.0   .     S
V6     Er16    10.0   1_545     S
V6     Er30    10.0   .     S
V6     Er26    10.0   .     S
V6     V22    10.0   .     S
V6     V21    10.0   .     S
V7     Er15    10.0   .     S
V7     Er13    10.0   .     S
V7     Er31    10.0   .     S
V7     Er27    10.0   .     S
V7     V23    10.0   .     S
V7     V24    10.0   1_554     S
V8     Er16    10.0   .     S
V8     Er14    10.0   .     S
V8     Er32    10.0   .     S
V8     Er28    10.0   .     S
V8     V24    10.0   .     S
V8     V23    10.0   .     S
Er9     V20    10.0   1_554     S
Er9     V18    10.0   1_554     S
Er10     V19    10.0   .     S
Er10     V17    10.0   .     S
Er11     V1    10.0   1_565     S
Er11     V18    10.0   1_564     S
Er11     V20    10.0   1_554     S
Er12     V2    10.0   1_565     S
Er12     V17    10.0   1_565     S
Er12     V19    10.0   .     S
Er13     V24    10.0   1_554     S
Er13     V22    10.0   1_554     S
Er14     V23    10.0   .     S
Er14     V21    10.0   .     S
Er15     V5    10.0   1_565     S
Er15     V22    10.0   1_564     S
Er15     V24    10.0   1_554     S
Er16     V6    10.0   1_565     S
Er16     V21    10.0   1_565     S
Er16     V23    10.0   .     S
V17     Er12    10.0   1_545     S
V17     Er29    10.0   1_455     S
V17     Er25    10.0   .     S
V18     Er11    10.0   1_546     S
V18     Er30    10.0   1_455     S
V18     Er26    10.0   .     S
V18     Er9    10.0   1_556     S
V18     V1    10.0   1_556     S
V19     Er31    10.0   1_455     S
V19     Er27    10.0   .     S
V20     Er9    10.0   1_556     S
V20     Er32    10.0   1_455     S
V20     Er28    10.0   .     S
V20     Er11    10.0   1_556     S
V20     V3    10.0   1_556     S
V21     Er16    10.0   1_545     S
V21     Er25    10.0   .     S
V21     Er29    10.0   .     S
V22     Er15    10.0   1_546     S
V22     Er26    10.0   .     S
V22     Er30    10.0   .     S
V22     Er13    10.0   1_556     S
V22     V5    10.0   1_556     S
V23     Er27    10.0   .     S
V23     Er31    10.0   .     S
V24     Er13    10.0   1_556     S
V24     Er28    10.0   .     S
V24     Er32    10.0   .     S
V24     Er15    10.0   1_556     S
V24     V7    10.0   1_556     S
Er29     V17    10.0   1_655     S
Er29     V1    10.0   1_655     S
Er30     V18    10.0   1_655     S
Er30     V2    10.0   1_655     S
Er31     V19    10.0   1_655     S
Er31     V3    10.0   1_655     S
Er32     V20    10.0   1_655     S
Er32     V4    10.0   1_655     S
