data_ptt
_audit_creation_date              2019-12-31
_audit_creation_method            'Pymatgen'
_symmetry_space_group_name_H-M    'P1'
_symmetry_Int_Tables_number       1
loop_
_symmetry_equiv_pos_as_xyz
  x,y,z
_cell_length_a                    46.6004
_cell_length_b                    30.3532
_cell_length_c                    30.7801
_cell_angle_alpha                 90.0
_cell_angle_beta                 90.0
_cell_angle_gamma                 90.0
loop_
_atom_site_label
_atom_site_type_symbol
_atom_site_fract_x
_atom_site_fract_y
_atom_site_fract_z
Er1     Er     0.0   0.0   0.75
Er2     Er     0.0   0.5   0.75
V3     V     0.1398   0.25   0.75
V4     V     0.1398   0.75   0.75
V5     V     0.8602   0.25   0.75
V6     V     0.8602   0.75   0.75
V7     V     0.6398   0.0   0.75
V8     V     0.6398   0.5   0.75
Er9     Er     0.5   0.25   0.75
Er10     Er     0.5   0.75   0.75
V11     V     0.3602   0.0   0.75
V12     V     0.3602   0.5   0.75
Ti13     Ti     0.25   0.375   0.0
Ti14     Ti     0.25   0.875   0.0
Er15     Er     0.0   0.0   0.25
Er16     Er     0.0   0.5   0.25
V17     V     0.1398   0.25   0.25
V18     V     0.1398   0.75   0.25
V19     V     0.8602   0.25   0.25
V20     V     0.8602   0.75   0.25
V21     V     0.6398   0.0   0.25
V22     V     0.6398   0.5   0.25
V23     V     0.3602   0.0   0.25
V24     V     0.3602   0.5   0.25
Er25     Er     0.5   0.25   0.25
Er26     Er     0.5   0.75   0.25
Ti27     Ti     0.75   0.125   0.0
Ti28     Ti     0.75   0.625   0.0
Ti29     Ti     0.25   0.125   0.5
Ti30     Ti     0.25   0.625   0.5
Ti31     Ti     0.75   0.375   0.5
Ti32     Ti     0.75   0.875   0.5
loop_
_geom_bond_atom_site_label_1
_geom_bond_atom_site_label_2
_geom_bond_distance
_geom_bond_site_symmetry_2
_ccdc_geom_bond_type
Er1     V6    10.0   1_445     S
Er1     V5    10.0   1_455     S
Er1     V3    10.0   .     S
Er1     V4    10.0   1_545     S
Er2     V5    10.0   1_455     S
Er2     V6    10.0   1_455     S
Er2     V4    10.0   .     S
Er2     V3    10.0   .     S
V3     Ti29    10.0   .     S
V3     Ti13    10.0   1_556     S
V4     Er1    10.0   1_565     S
V4     Ti30    10.0   .     S
V4     Ti14    10.0   1_556     S
V5     Er2    10.0   1_655     S
V5     Er1    10.0   1_655     S
V5     Ti31    10.0   .     S
V5     Ti27    10.0   1_556     S
V6     Er1    10.0   1_665     S
V6     Er2    10.0   1_655     S
V6     Ti32    10.0   .     S
V6     Ti28    10.0   1_556     S
V7     Er10    10.0   1_545     S
V7     Er9    10.0   .     S
V7     Ti32    10.0   1_545     S
V7     Ti27    10.0   1_556     S
V8     Er9    10.0   .     S
V8     Er10    10.0   .     S
V8     Ti31    10.0   .     S
V8     Ti28    10.0   1_556     S
Er9     V11    10.0   .     S
Er9     V12    10.0   .     S
Er10     V7    10.0   1_565     S
Er10     V12    10.0   .     S
Er10     V11    10.0   1_565     S
V11     Er10    10.0   1_545     S
V11     Ti29    10.0   .     S
V11     Ti14    10.0   1_546     S
V12     Ti30    10.0   .     S
V12     Ti13    10.0   1_556     S
Ti13     V24    10.0   .     S
Ti13     V17    10.0   .     S
Ti13     V12    10.0   1_554     S
Ti13     V3    10.0   1_554     S
Ti14     V23    10.0   1_565     S
Ti14     V18    10.0   .     S
Ti14     V11    10.0   1_564     S
Ti14     V4    10.0   1_554     S
Er15     V20    10.0   1_445     S
Er15     V19    10.0   1_455     S
Er15     V17    10.0   .     S
Er15     V18    10.0   1_545     S
Er16     V19    10.0   1_455     S
Er16     V20    10.0   1_455     S
Er16     V18    10.0   .     S
Er16     V17    10.0   .     S
V17     Ti29    10.0   .     S
V18     Er15    10.0   1_565     S
V18     Ti30    10.0   .     S
V19     Er16    10.0   1_655     S
V19     Er15    10.0   1_655     S
V19     Ti27    10.0   .     S
V19     Ti31    10.0   .     S
V20     Er15    10.0   1_665     S
V20     Er16    10.0   1_655     S
V20     Ti28    10.0   .     S
V20     Ti32    10.0   .     S
V21     Er26    10.0   1_545     S
V21     Er25    10.0   .     S
V21     Ti27    10.0   .     S
V21     Ti32    10.0   1_545     S
V22     Er25    10.0   .     S
V22     Er26    10.0   .     S
V22     Ti28    10.0   .     S
V22     Ti31    10.0   .     S
V23     Ti14    10.0   1_545     S
V23     Er25    10.0   .     S
V23     Er26    10.0   1_545     S
V23     Ti29    10.0   .     S
V24     Er26    10.0   .     S
V24     Er25    10.0   .     S
V24     Ti30    10.0   .     S
Er26     V21    10.0   1_565     S
Er26     V23    10.0   1_565     S
Ti27     V7    10.0   1_554     S
Ti27     V5    10.0   1_554     S
Ti28     V8    10.0   1_554     S
Ti28     V6    10.0   1_554     S
Ti32     V7    10.0   1_565     S
Ti32     V21    10.0   1_565     S
