data_qdl-e
_audit_creation_date              2019-12-31
_audit_creation_method            'Pymatgen'
_symmetry_space_group_name_H-M    'P1'
_symmetry_Int_Tables_number       1
loop_
_symmetry_equiv_pos_as_xyz
  x,y,z
_cell_length_a                    32.658
_cell_length_b                    32.658
_cell_length_c                    69.2903
_cell_angle_alpha                 90.0
_cell_angle_beta                 90.0
_cell_angle_gamma                 120.0
loop_
_atom_site_label
_atom_site_type_symbol
_atom_site_fract_x
_atom_site_fract_y
_atom_site_fract_z
Ti1     Ti     0.25   0.25   0.4167
Ti2     Ti     0.25   0.75   0.4167
Ti3     Ti     0.75   0.25   0.4167
Ti4     Ti     0.75   0.75   0.4167
Ti5     Ti     0.0   0.25   0.5833
Ti6     Ti     1.0   0.75   0.5833
Ti7     Ti     0.5   0.25   0.5833
Ti8     Ti     0.5   0.75   0.5833
Er9     Er     0.0   0.0   0.5
Er10     Er     0.0   0.5   0.5
Er11     Er     0.5   0.0   0.5
Er12     Er     0.5   0.5   0.5
Ti13     Ti     0.0   0.25   0.75
Ti14     Ti     1.0   0.75   0.75
Ti15     Ti     0.5   0.25   0.75
Ti16     Ti     0.5   0.75   0.75
Er17     Er     0.0   0.0   0.8333
Er18     Er     0.0   0.5   0.8333
Er19     Er     0.5   0.0   0.8333
Er20     Er     0.5   0.5   0.8333
Ti21     Ti     0.25   0.0   0.9167
Ti22     Ti     0.25   0.5   0.9167
Ti23     Ti     0.75   0.0   0.9167
Ti24     Ti     0.75   0.5   0.9167
Ti25     Ti     0.25   0.25   0.25
Ti26     Ti     0.25   0.75   0.25
Ti27     Ti     0.75   0.25   0.25
Ti28     Ti     0.75   0.75   0.25
V29     V     0.0   0.0   0.3333
V30     V     0.0   0.5   0.3333
V31     V     0.5   0.0   0.3333
V32     V     0.5   0.5   0.3333
Er33     Er     0.0   0.0   0.1667
Er34     Er     0.0   0.5   0.1667
Er35     Er     0.5   0.0   0.1667
Er36     Er     0.5   0.5   0.1667
Ti37     Ti     0.25   0.0   0.0833
Ti38     Ti     0.25   0.5   0.0833
Ti39     Ti     0.75   0.0   0.0833
Ti40     Ti     0.75   0.5   0.0833
V41     V     0.0   0.0   0.0
V42     V     0.0   0.5   0.0
V43     V     0.5   0.0   0.0
V44     V     0.5   0.5   0.0
V45     V     0.0   0.0   0.6667
V46     V     0.0   0.5   0.6667
V47     V     0.5   0.0   0.6667
V48     V     0.5   0.5   0.6667
loop_
_geom_bond_atom_site_label_1
_geom_bond_atom_site_label_2
_geom_bond_distance
_geom_bond_site_symmetry_2
_ccdc_geom_bond_type
Ti1     V32    10.0   .     S
Ti1     V29    10.0   .     S
Ti1     Er12    10.0   .     S
Ti1     Er9    10.0   .     S
Ti2     V31    10.0   1_565     S
Ti2     V30    10.0   .     S
Ti2     Er11    10.0   1_565     S
Ti2     Er10    10.0   .     S
Ti3     V30    10.0   1_655     S
Ti3     V31    10.0   .     S
Ti3     Er10    10.0   1_655     S
Ti3     Er11    10.0   .     S
Ti4     V29    10.0   1_665     S
Ti4     V32    10.0   .     S
Ti4     Er9    10.0   1_665     S
Ti4     Er12    10.0   .     S
Ti5     V46    10.0   .     S
Ti5     V45    10.0   .     S
Ti5     Er9    10.0   .     S
Ti5     Er10    10.0   .     S
Ti6     V45    10.0   1_665     S
Ti6     V46    10.0   1_655     S
Ti6     Er10    10.0   1_655     S
Ti6     Er9    10.0   1_665     S
Ti7     V48    10.0   .     S
Ti7     V47    10.0   .     S
Ti7     Er11    10.0   .     S
Ti7     Er12    10.0   .     S
Ti8     V47    10.0   1_565     S
Ti8     V48    10.0   .     S
Ti8     Er12    10.0   .     S
Ti8     Er11    10.0   1_565     S
Er9     Ti4    10.0   1_445     S
Er9     Ti6    10.0   1_445     S
Er10     Ti3    10.0   1_455     S
Er10     Ti6    10.0   1_455     S
Er11     Ti2    10.0   1_545     S
Er11     Ti8    10.0   1_545     S
Ti13     V46    10.0   .     S
Ti13     V45    10.0   .     S
Ti13     Er18    10.0   .     S
Ti13     Er17    10.0   .     S
Ti14     V45    10.0   1_665     S
Ti14     V46    10.0   1_655     S
Ti14     Er17    10.0   1_665     S
Ti14     Er18    10.0   1_655     S
Ti15     V48    10.0   .     S
Ti15     V47    10.0   .     S
Ti15     Er20    10.0   .     S
Ti15     Er19    10.0   .     S
Ti16     V47    10.0   1_565     S
Ti16     V48    10.0   .     S
Ti16     Er19    10.0   1_565     S
Ti16     Er20    10.0   .     S
Er17     Ti14    10.0   1_445     S
Er17     Ti21    10.0   .     S
Er17     Ti23    10.0   1_455     S
Er18     Ti22    10.0   .     S
Er18     Ti24    10.0   1_455     S
Er18     Ti14    10.0   1_455     S
Er19     Ti16    10.0   1_545     S
Er19     Ti23    10.0   .     S
Er19     Ti21    10.0   .     S
Er20     Ti24    10.0   .     S
Er20     Ti22    10.0   .     S
Ti21     V41    10.0   1_556     S
Ti21     V43    10.0   1_556     S
Ti22     V42    10.0   1_556     S
Ti22     V44    10.0   1_556     S
Ti23     Er17    10.0   1_655     S
Ti23     V43    10.0   1_556     S
Ti23     V41    10.0   1_656     S
Ti24     Er18    10.0   1_655     S
Ti24     V44    10.0   1_556     S
Ti24     V42    10.0   1_656     S
Ti25     V32    10.0   .     S
Ti25     V29    10.0   .     S
Ti25     Er33    10.0   .     S
Ti25     Er36    10.0   .     S
Ti26     V31    10.0   1_565     S
Ti26     V30    10.0   .     S
Ti26     Er34    10.0   .     S
Ti26     Er35    10.0   1_565     S
Ti27     V30    10.0   1_655     S
Ti27     V31    10.0   .     S
Ti27     Er35    10.0   .     S
Ti27     Er34    10.0   1_655     S
Ti28     V29    10.0   1_665     S
Ti28     V32    10.0   .     S
Ti28     Er36    10.0   .     S
Ti28     Er33    10.0   1_665     S
V29     Ti4    10.0   1_445     S
V29     Ti28    10.0   1_445     S
V30     Ti3    10.0   1_455     S
V30     Ti27    10.0   1_455     S
V31     Ti2    10.0   1_545     S
V31     Ti26    10.0   1_545     S
Er33     Ti28    10.0   1_445     S
Er33     Ti37    10.0   .     S
Er33     Ti39    10.0   1_455     S
Er34     Ti27    10.0   1_455     S
Er34     Ti38    10.0   .     S
Er34     Ti40    10.0   1_455     S
Er35     Ti26    10.0   1_545     S
Er35     Ti39    10.0   .     S
Er35     Ti37    10.0   .     S
Er36     Ti40    10.0   .     S
Er36     Ti38    10.0   .     S
Ti37     V41    10.0   .     S
Ti37     V43    10.0   .     S
Ti38     V42    10.0   .     S
Ti38     V44    10.0   .     S
Ti39     V43    10.0   .     S
Ti39     V41    10.0   1_655     S
Ti39     Er33    10.0   1_655     S
Ti40     V44    10.0   .     S
Ti40     V42    10.0   1_655     S
Ti40     Er34    10.0   1_655     S
V41     Ti21    10.0   1_554     S
V41     Ti23    10.0   1_454     S
V41     Ti39    10.0   1_455     S
V42     Ti22    10.0   1_554     S
V42     Ti24    10.0   1_454     S
V42     Ti40    10.0   1_455     S
V43     Ti23    10.0   1_554     S
V43     Ti21    10.0   1_554     S
V44     Ti24    10.0   1_554     S
V44     Ti22    10.0   1_554     S
V45     Ti6    10.0   1_445     S
V45     Ti14    10.0   1_445     S
V46     Ti6    10.0   1_455     S
V46     Ti14    10.0   1_455     S
V47     Ti8    10.0   1_545     S
V47     Ti16    10.0   1_545     S
