data_qdl
_audit_creation_date              2019-12-31
_audit_creation_method            'Pymatgen'
_symmetry_space_group_name_H-M    'P1'
_symmetry_Int_Tables_number       1
loop_
_symmetry_equiv_pos_as_xyz
  x,y,z
_cell_length_a                    30.0
_cell_length_b                    30.0
_cell_length_c                    59.9998
_cell_angle_alpha                 90.0
_cell_angle_beta                 90.0
_cell_angle_gamma                 120.0
loop_
_atom_site_label
_atom_site_type_symbol
_atom_site_fract_x
_atom_site_fract_y
_atom_site_fract_z
V1     V     0.0   0.0   0.25
V2     V     1.0   0.3333   0.25
V3     V     1.0   0.6667   0.25
V4     V     0.3333   0.0   0.25
V5     V     0.3333   0.3333   0.25
V6     V     0.3333   0.6667   0.25
V7     V     0.6667   0.0   0.25
V8     V     0.6667   0.3333   0.25
V9     V     0.6667   0.6667   0.25
V10     V     0.0   0.0   0.4167
V11     V     1.0   0.3333   0.4167
V12     V     1.0   0.6667   0.4167
V13     V     0.3333   0.0   0.4167
V14     V     0.3333   0.3333   0.4167
V15     V     0.3333   0.6667   0.4167
V16     V     0.6667   0.0   0.4167
V17     V     0.6667   0.3333   0.4167
V18     V     0.6667   0.6667   0.4167
V19     V     0.0   0.0   0.0833
V20     V     1.0   0.3333   0.0833
V21     V     1.0   0.6667   0.0833
V22     V     0.3333   0.0   0.0833
V23     V     0.3333   0.3333   0.0833
V24     V     0.3333   0.6667   0.0833
V25     V     0.6667   0.0   0.0833
V26     V     0.6667   0.3333   0.0833
V27     V     0.6667   0.6667   0.0833
V28     V     0.0   0.0   0.9167
V29     V     1.0   0.3333   0.9167
V30     V     1.0   0.6667   0.9167
V31     V     0.3333   0.0   0.9167
V32     V     0.3333   0.3333   0.9167
V33     V     0.3333   0.6667   0.9167
V34     V     0.6667   0.0   0.9167
V35     V     0.6667   0.3333   0.9167
V36     V     0.6667   0.6667   0.9167
V37     V     0.0   0.0   0.5833
V38     V     1.0   0.3333   0.5833
V39     V     1.0   0.6667   0.5833
V40     V     0.3333   0.0   0.5833
V41     V     0.3333   0.3333   0.5833
V42     V     0.3333   0.6667   0.5833
V43     V     0.6667   0.0   0.5833
V44     V     0.6667   0.3333   0.5833
V45     V     0.6667   0.6667   0.5833
V46     V     0.0   0.0   0.75
V47     V     1.0   0.3333   0.75
V48     V     1.0   0.6667   0.75
V49     V     0.3333   0.0   0.75
V50     V     0.3333   0.3333   0.75
V51     V     0.3333   0.6667   0.75
V52     V     0.6667   0.0   0.75
V53     V     0.6667   0.3333   0.75
V54     V     0.6667   0.6667   0.75
loop_
_geom_bond_atom_site_label_1
_geom_bond_atom_site_label_2
_geom_bond_distance
_geom_bond_site_symmetry_2
_ccdc_geom_bond_type
V1     V10    10.0   .     S
V1     V19    10.0   .     S
V1     V2    10.0   1_455     S
V1     V3    10.0   1_445     S
V2     V11    10.0   .     S
V2     V20    10.0   .     S
V2     V1    10.0   1_655     S
V2     V3    10.0   .     S
V3     V12    10.0   .     S
V3     V21    10.0   .     S
V3     V1    10.0   1_665     S
V4     V13    10.0   .     S
V4     V22    10.0   .     S
V4     V5    10.0   .     S
V4     V6    10.0   1_545     S
V5     V14    10.0   .     S
V5     V23    10.0   .     S
V5     V6    10.0   .     S
V6     V15    10.0   .     S
V6     V24    10.0   .     S
V6     V4    10.0   1_565     S
V7     V16    10.0   .     S
V7     V25    10.0   .     S
V7     V8    10.0   .     S
V7     V9    10.0   1_545     S
V8     V17    10.0   .     S
V8     V26    10.0   .     S
V8     V9    10.0   .     S
V9     V18    10.0   .     S
V9     V27    10.0   .     S
V9     V7    10.0   1_565     S
V10     V13    10.0   .     S
V10     V16    10.0   1_455     S
V10     V37    10.0   .     S
V11     V14    10.0   1_655     S
V11     V17    10.0   .     S
V11     V38    10.0   .     S
V12     V15    10.0   1_655     S
V12     V18    10.0   .     S
V12     V39    10.0   .     S
V13     V16    10.0   .     S
V13     V40    10.0   .     S
V14     V11    10.0   1_455     S
V14     V17    10.0   .     S
V14     V41    10.0   .     S
V15     V12    10.0   1_455     S
V15     V18    10.0   .     S
V15     V42    10.0   .     S
V16     V10    10.0   1_655     S
V16     V43    10.0   .     S
V17     V44    10.0   .     S
V18     V45    10.0   .     S
V19     V28    10.0   1_554     S
V19     V20    10.0   1_455     S
V19     V21    10.0   1_445     S
V20     V29    10.0   1_554     S
V20     V19    10.0   1_655     S
V20     V21    10.0   .     S
V21     V30    10.0   1_554     S
V21     V19    10.0   1_665     S
V22     V31    10.0   1_554     S
V22     V23    10.0   .     S
V22     V24    10.0   1_545     S
V23     V32    10.0   1_554     S
V23     V24    10.0   .     S
V24     V33    10.0   1_554     S
V24     V22    10.0   1_565     S
V25     V34    10.0   1_554     S
V25     V26    10.0   .     S
V25     V27    10.0   1_545     S
V26     V35    10.0   1_554     S
V26     V27    10.0   .     S
V27     V36    10.0   1_554     S
V27     V25    10.0   1_565     S
V28     V19    10.0   1_556     S
V28     V46    10.0   .     S
V28     V32    10.0   .     S
V28     V36    10.0   1_445     S
V29     V20    10.0   1_556     S
V29     V47    10.0   .     S
V29     V33    10.0   1_655     S
V29     V34    10.0   .     S
V30     V21    10.0   1_556     S
V30     V48    10.0   .     S
V30     V31    10.0   1_665     S
V30     V35    10.0   .     S
V31     V22    10.0   1_556     S
V31     V49    10.0   .     S
V31     V30    10.0   1_445     S
V31     V35    10.0   .     S
V32     V23    10.0   1_556     S
V32     V50    10.0   .     S
V32     V36    10.0   .     S
V33     V24    10.0   1_556     S
V33     V51    10.0   .     S
V33     V29    10.0   1_455     S
V33     V34    10.0   1_565     S
V34     V25    10.0   1_556     S
V34     V52    10.0   .     S
V34     V33    10.0   1_545     S
V35     V26    10.0   1_556     S
V35     V53    10.0   .     S
V36     V27    10.0   1_556     S
V36     V54    10.0   .     S
V36     V28    10.0   1_665     S
V37     V46    10.0   .     S
V37     V40    10.0   .     S
V37     V43    10.0   1_455     S
V38     V47    10.0   .     S
V38     V41    10.0   1_655     S
V38     V44    10.0   .     S
V39     V48    10.0   .     S
V39     V42    10.0   1_655     S
V39     V45    10.0   .     S
V40     V49    10.0   .     S
V40     V43    10.0   .     S
V41     V50    10.0   .     S
V41     V38    10.0   1_455     S
V41     V44    10.0   .     S
V42     V51    10.0   .     S
V42     V39    10.0   1_455     S
V42     V45    10.0   .     S
V43     V52    10.0   .     S
V43     V37    10.0   1_655     S
V44     V53    10.0   .     S
V45     V54    10.0   .     S
V46     V50    10.0   .     S
V46     V54    10.0   1_445     S
V47     V51    10.0   1_655     S
V47     V52    10.0   .     S
V48     V49    10.0   1_665     S
V48     V53    10.0   .     S
V49     V48    10.0   1_445     S
V49     V53    10.0   .     S
V50     V54    10.0   .     S
V51     V47    10.0   1_455     S
V51     V52    10.0   1_565     S
V52     V51    10.0   1_545     S
V54     V46    10.0   1_665     S
