data_qnd
_audit_creation_date              2019-12-31
_audit_creation_method            'Pymatgen'
_symmetry_space_group_name_H-M    'P1'
_symmetry_Int_Tables_number       1
loop_
_symmetry_equiv_pos_as_xyz
  x,y,z
_cell_length_a                    44.2133
_cell_length_b                    44.2133
_cell_length_c                    33.3364
_cell_angle_alpha                 90.0
_cell_angle_beta                 90.0
_cell_angle_gamma                 120.0
loop_
_atom_site_label
_atom_site_type_symbol
_atom_site_fract_x
_atom_site_fract_y
_atom_site_fract_z
V1     V     0.2748   0.3332   0.125
V2     V     0.2748   0.3332   0.625
V3     V     0.0584   0.3332   0.125
V4     V     0.0584   0.3332   0.625
Ti5     Ti     0.2028   0.4055   0.375
Ti6     Ti     0.2028   0.4055   0.875
V7     V     0.2748   0.9416   0.125
V8     V     0.2748   0.9416   0.625
V9     V     0.0584   0.7252   0.125
V10     V     0.0584   0.7252   0.625
V11     V     0.6668   0.9416   0.125
V12     V     0.6668   0.9416   0.625
V13     V     0.6668   0.7252   0.125
V14     V     0.6668   0.7252   0.625
Er15     Er     0.3333   0.6667   0.375
Er16     Er     0.3333   0.6667   0.875
Ti17     Ti     0.5945   0.7972   0.375
Ti18     Ti     0.5945   0.7972   0.875
Ti19     Ti     0.2028   0.7972   0.375
Ti20     Ti     0.2028   0.7972   0.875
V21     V     0.3332   0.2748   0.375
V22     V     0.3332   0.2748   0.875
V23     V     0.3332   0.0584   0.375
V24     V     0.3332   0.0584   0.875
Ti25     Ti     0.4055   0.2028   0.125
Ti26     Ti     0.4055   0.2028   0.625
V27     V     0.9416   0.6668   0.375
V28     V     0.9416   0.6668   0.875
V29     V     0.7252   0.6668   0.375
V30     V     0.7252   0.6668   0.875
V31     V     0.7252   0.0584   0.375
V32     V     0.7252   0.0584   0.875
V33     V     0.9416   0.2748   0.375
V34     V     0.9416   0.2748   0.875
Er35     Er     0.6667   0.3333   0.125
Er36     Er     0.6667   0.3333   0.625
Ti37     Ti     0.7973   0.5945   0.125
Ti38     Ti     0.7973   0.5945   0.625
Ti39     Ti     0.7973   0.2028   0.125
Ti40     Ti     0.7973   0.2028   0.625
loop_
_geom_bond_atom_site_label_1
_geom_bond_atom_site_label_2
_geom_bond_distance
_geom_bond_site_symmetry_2
_ccdc_geom_bond_type
V1     Ti5    10.0   .     S
V1     Ti6    10.0   1_554     S
V1     Ti25    10.0   .     S
V2     Ti6    10.0   .     S
V2     Ti5    10.0   .     S
V2     Ti26    10.0   .     S
V3     Ti6    10.0   1_554     S
V3     Ti5    10.0   .     S
V3     Ti39    10.0   1_455     S
V4     Ti5    10.0   .     S
V4     Ti6    10.0   .     S
V4     Ti40    10.0   1_455     S
Ti5     V33    10.0   1_455     S
Ti5     V21    10.0   .     S
Ti5     Er15    10.0   .     S
Ti6     V34    10.0   1_455     S
Ti6     V3    10.0   1_556     S
Ti6     V22    10.0   .     S
Ti6     V1    10.0   1_556     S
Ti6     Er16    10.0   .     S
V7     Ti20    10.0   1_554     S
V7     Ti19    10.0   .     S
V7     Ti25    10.0   1_565     S
V8     Ti19    10.0   .     S
V8     Ti20    10.0   .     S
V8     Ti26    10.0   1_565     S
V9     Ti19    10.0   .     S
V9     Ti20    10.0   1_554     S
V9     Ti37    10.0   1_455     S
V10     Ti20    10.0   .     S
V10     Ti19    10.0   .     S
V10     Ti38    10.0   1_455     S
V11     Ti17    10.0   .     S
V11     Ti18    10.0   1_554     S
V11     Ti39    10.0   1_565     S
V12     Ti18    10.0   .     S
V12     Ti17    10.0   .     S
V12     Ti40    10.0   1_565     S
V13     Ti18    10.0   1_554     S
V13     Ti17    10.0   .     S
V13     Ti37    10.0   .     S
V14     Ti17    10.0   .     S
V14     Ti18    10.0   .     S
V14     Ti38    10.0   .     S
Er15     Ti19    10.0   .     S
Er15     Ti17    10.0   .     S
Er16     Ti20    10.0   .     S
Er16     Ti18    10.0   .     S
Ti17     V29    10.0   .     S
Ti17     V31    10.0   1_565     S
Ti18     V30    10.0   .     S
Ti18     V13    10.0   1_556     S
Ti18     V32    10.0   1_565     S
Ti18     V11    10.0   1_556     S
Ti19     V23    10.0   1_565     S
Ti19     V27    10.0   1_455     S
Ti20     V24    10.0   1_565     S
Ti20     V7    10.0   1_556     S
Ti20     V28    10.0   1_455     S
Ti20     V9    10.0   1_556     S
V21     Ti25    10.0   .     S
V21     Ti26    10.0   .     S
V22     Ti26    10.0   .     S
V22     Ti25    10.0   1_556     S
V23     Ti19    10.0   1_545     S
V23     Ti26    10.0   .     S
V23     Ti25    10.0   .     S
V24     Ti20    10.0   1_545     S
V24     Ti25    10.0   1_556     S
V24     Ti26    10.0   .     S
Ti25     V22    10.0   1_554     S
Ti25     V7    10.0   1_545     S
Ti25     V24    10.0   1_554     S
Ti25     Er35    10.0   .     S
Ti26     V8    10.0   1_545     S
Ti26     Er36    10.0   .     S
V27     Ti19    10.0   1_655     S
V27     Ti37    10.0   .     S
V27     Ti38    10.0   .     S
V28     Ti20    10.0   1_655     S
V28     Ti38    10.0   .     S
V28     Ti37    10.0   1_556     S
V29     Ti38    10.0   .     S
V29     Ti37    10.0   .     S
V30     Ti37    10.0   1_556     S
V30     Ti38    10.0   .     S
V31     Ti17    10.0   1_545     S
V31     Ti39    10.0   .     S
V31     Ti40    10.0   .     S
V32     Ti18    10.0   1_545     S
V32     Ti40    10.0   .     S
V32     Ti39    10.0   1_556     S
V33     Ti5    10.0   1_655     S
V33     Ti40    10.0   .     S
V33     Ti39    10.0   .     S
V34     Ti6    10.0   1_655     S
V34     Ti39    10.0   1_556     S
V34     Ti40    10.0   .     S
Er35     Ti39    10.0   .     S
Er35     Ti37    10.0   .     S
Er36     Ti40    10.0   .     S
Er36     Ti38    10.0   .     S
Ti37     V30    10.0   1_554     S
Ti37     V9    10.0   1_655     S
Ti37     V28    10.0   1_554     S
Ti38     V10    10.0   1_655     S
Ti39     V11    10.0   1_545     S
Ti39     V32    10.0   1_554     S
Ti39     V3    10.0   1_655     S
Ti39     V34    10.0   1_554     S
Ti40     V12    10.0   1_545     S
Ti40     V4    10.0   1_655     S
