data_qrf
_audit_creation_date              2019-12-31
_audit_creation_method            'Pymatgen'
_symmetry_space_group_name_H-M    'P1'
_symmetry_Int_Tables_number       1
loop_
_symmetry_equiv_pos_as_xyz
  x,y,z
_cell_length_a                    60.1159
_cell_length_b                    29.4747
_cell_length_c                    34.9249
_cell_angle_alpha                 90.0
_cell_angle_beta                 90.0
_cell_angle_gamma                 90.0
loop_
_atom_site_label
_atom_site_type_symbol
_atom_site_fract_x
_atom_site_fract_y
_atom_site_fract_z
Er1     Er     0.916   0.1667   0.0
Er2     Er     0.916   0.5   0.0
Er3     Er     0.916   0.8333   0.0
V4     V     0.7912   0.2778   0.8759
V5     V     0.7912   0.6111   0.8759
V6     V     0.7912   0.9445   0.8759
V7     V     0.7912   0.0555   0.1241
V8     V     0.7912   0.3889   0.1241
V9     V     0.7912   0.7222   0.1241
Er10     Er     0.584   0.1667   0.5
Er11     Er     0.584   0.5   0.5
Er12     Er     0.584   0.8333   0.5
V13     V     0.7088   0.0555   0.3759
V14     V     0.7088   0.3889   0.3759
V15     V     0.7088   0.7222   0.3759
V16     V     0.7088   0.2778   0.6241
V17     V     0.7088   0.6111   0.6241
V18     V     0.7088   0.9445   0.6241
Er19     Er     0.084   0.1667   0.0
Er20     Er     0.084   0.5   0.0
Er21     Er     0.084   0.8333   0.0
V22     V     0.2088   0.2778   0.8759
V23     V     0.2088   0.6111   0.8759
V24     V     0.2088   0.9445   0.8759
V25     V     0.2088   0.0555   0.1241
V26     V     0.2088   0.3889   0.1241
V27     V     0.2088   0.7222   0.1241
Er28     Er     0.416   0.1667   0.5
Er29     Er     0.416   0.5   0.5
Er30     Er     0.416   0.8333   0.5
V31     V     0.2912   0.2778   0.6241
V32     V     0.2912   0.6111   0.6241
V33     V     0.2912   0.9445   0.6241
V34     V     0.2912   0.0555   0.3759
V35     V     0.2912   0.3889   0.3759
V36     V     0.2912   0.7222   0.3759
loop_
_geom_bond_atom_site_label_1
_geom_bond_atom_site_label_2
_geom_bond_distance
_geom_bond_site_symmetry_2
_ccdc_geom_bond_type
Er1     Er19    10.095   1_655     S
Er1     V6    10.863   1_544     S
Er1     V8    10.863   .     S
Er1     V4    9.264   1_554     S
Er1     V7    9.264   .     S
Er1     Er3    9.825   1_545     S
Er1     Er2    9.825   .     S
Er2     Er20    10.095   1_655     S
Er2     V4    10.863   1_554     S
Er2     V9    10.863   .     S
Er2     V5    9.264   1_554     S
Er2     V8    9.264   .     S
Er2     Er3    9.825   .     S
Er3     Er21    10.095   1_655     S
Er3     V5    10.863   1_554     S
Er3     V7    10.863   1_565     S
Er3     V6    9.264   1_554     S
Er3     V9    9.264   .     S
Er3     Er1    9.825   1_565     S
V4     V16    10.094   .     S
V4     Er2    10.863   1_556     S
V4     V7    10.864   1_556     S
V4     V8    9.265   1_556     S
V4     Er1    9.264   1_556     S
V4     V6    9.825   1_545     S
V4     V5    9.825   .     S
V5     V17    10.094   .     S
V5     Er3    10.863   1_556     S
V5     V8    10.864   1_556     S
V5     V9    9.265   1_556     S
V5     Er2    9.264   1_556     S
V5     V6    9.825   .     S
V6     V18    10.094   .     S
V6     Er1    10.863   1_566     S
V6     V9    10.864   1_556     S
V6     V7    9.265   1_566     S
V6     Er3    9.264   1_556     S
V6     V4    9.825   1_565     S
V7     V13    10.094   .     S
V7     Er3    10.863   1_545     S
V7     V4    10.864   1_554     S
V7     V6    9.265   1_544     S
V7     V8    9.825   .     S
V7     V9    9.825   1_545     S
V8     V14    10.094   .     S
V8     V5    10.864   1_554     S
V8     V4    9.265   1_554     S
V8     V9    9.825   .     S
V9     V15    10.094   .     S
V9     V6    10.864   1_554     S
V9     V5    9.265   1_554     S
V9     V7    9.825   1_565     S
Er10     Er28    10.095   .     S
Er10     V18    10.863   1_545     S
Er10     V14    10.863   .     S
Er10     V13    9.264   .     S
Er10     V16    9.264   .     S
Er10     Er12    9.825   1_545     S
Er10     Er11    9.825   .     S
Er11     Er29    10.095   .     S
Er11     V16    10.863   .     S
Er11     V15    10.863   .     S
Er11     V14    9.264   .     S
Er11     V17    9.264   .     S
Er11     Er12    9.825   .     S
Er12     Er30    10.095   .     S
Er12     V17    10.863   .     S
Er12     V13    10.863   1_565     S
Er12     V15    9.264   .     S
Er12     V18    9.264   .     S
Er12     Er10    9.825   1_565     S
V13     V16    10.864   .     S
V13     Er12    10.863   1_545     S
V13     V18    9.265   1_545     S
V13     V14    9.825   .     S
V13     V15    9.825   1_545     S
V14     V17    10.864   .     S
V14     V16    9.265   .     S
V14     V15    9.825   .     S
V15     V18    10.864   .     S
V15     V17    9.265   .     S
V15     V13    9.825   1_565     S
V16     V18    9.825   1_545     S
V16     V17    9.825   .     S
V17     V18    9.825   .     S
V18     Er10    10.863   1_565     S
V18     V13    9.265   1_565     S
V18     V16    9.825   1_565     S
Er19     Er1    10.095   1_455     S
Er19     V24    10.863   1_544     S
Er19     V26    10.863   .     S
Er19     V22    9.264   1_554     S
Er19     V25    9.264   .     S
Er19     Er21    9.825   1_545     S
Er19     Er20    9.825   .     S
Er20     Er2    10.095   1_455     S
Er20     V22    10.863   1_554     S
Er20     V27    10.863   .     S
Er20     V23    9.264   1_554     S
Er20     V26    9.264   .     S
Er20     Er21    9.825   .     S
Er21     Er3    10.095   1_455     S
Er21     V23    10.863   1_554     S
Er21     V25    10.863   1_565     S
Er21     V24    9.264   1_554     S
Er21     V27    9.264   .     S
Er21     Er19    9.825   1_565     S
V22     V31    10.094   .     S
V22     Er20    10.863   1_556     S
V22     V25    10.864   1_556     S
V22     V26    9.265   1_556     S
V22     Er19    9.264   1_556     S
V22     V24    9.825   1_545     S
V22     V23    9.825   .     S
V23     V32    10.094   .     S
V23     Er21    10.863   1_556     S
V23     V26    10.864   1_556     S
V23     V27    9.265   1_556     S
V23     Er20    9.264   1_556     S
V23     V24    9.825   .     S
V24     V33    10.094   .     S
V24     Er19    10.863   1_566     S
V24     V27    10.864   1_556     S
V24     V25    9.265   1_566     S
V24     Er21    9.264   1_556     S
V24     V22    9.825   1_565     S
V25     V34    10.094   .     S
V25     Er21    10.863   1_545     S
V25     V22    10.864   1_554     S
V25     V24    9.265   1_544     S
V25     V26    9.825   .     S
V25     V27    9.825   1_545     S
V26     V35    10.094   .     S
V26     V23    10.864   1_554     S
V26     V22    9.265   1_554     S
V26     V27    9.825   .     S
V27     V36    10.094   .     S
V27     V24    10.864   1_554     S
V27     V23    9.265   1_554     S
V27     V25    9.825   1_565     S
Er28     V35    10.863   .     S
Er28     V33    10.863   1_545     S
Er28     V34    9.264   .     S
Er28     V31    9.264   .     S
Er28     Er30    9.825   1_545     S
Er28     Er29    9.825   .     S
Er29     V36    10.863   .     S
Er29     V31    10.863   .     S
Er29     V35    9.264   .     S
Er29     V32    9.264   .     S
Er29     Er30    9.825   .     S
Er30     V34    10.863   1_565     S
Er30     V32    10.863   .     S
Er30     V36    9.264   .     S
Er30     V33    9.264   .     S
Er30     Er28    9.825   1_565     S
V31     V34    10.864   .     S
V31     V35    9.265   .     S
V31     V33    9.825   1_545     S
V31     V32    9.825   .     S
V32     V35    10.864   .     S
V32     V36    9.265   .     S
V32     V33    9.825   .     S
V33     V36    10.864   .     S
V33     Er28    10.863   1_565     S
V33     V34    9.265   1_565     S
V33     V31    9.825   1_565     S
V34     Er30    10.863   1_545     S
V34     V33    9.265   1_545     S
V34     V35    9.825   .     S
V34     V36    9.825   1_545     S
V35     V36    9.825   .     S
V36     V34    9.825   1_565     S
