data_qsl
_audit_creation_date              2019-12-31
_audit_creation_method            'Pymatgen'
_symmetry_space_group_name_H-M    'P1'
_symmetry_Int_Tables_number       1
loop_
_symmetry_equiv_pos_as_xyz
  x,y,z
_cell_length_a                    36.0845
_cell_length_b                    62.5965
_cell_length_c                    39.1138
_cell_angle_alpha                 90.0
_cell_angle_beta                 90.0
_cell_angle_gamma                 90.0
loop_
_atom_site_label
_atom_site_type_symbol
_atom_site_fract_x
_atom_site_fract_y
_atom_site_fract_z
Ce1     Ce     0.5   0.9368   0.125
Ce2     Ce     0.5   0.9368   0.625
Er3     Er     0.5   0.9034   0.375
Er4     Er     0.5   0.9034   0.875
V5     V     0.6553   0.7818   0.2917
V6     V     0.6553   0.7818   0.7917
V7     V     0.3447   0.7818   0.4583
V8     V     0.3447   0.7818   0.9583
Ti9     Ti     0.6051   0.7985   0.0417
Ti10     Ti     0.6051   0.7985   0.5417
Ti11     Ti     0.3949   0.7985   0.2083
Ti12     Ti     0.3949   0.7985   0.7083
Ce13     Ce     0.0   0.5632   0.375
Ce14     Ce     0.0   0.5632   0.875
Er15     Er     0.0   0.5966   0.125
Er16     Er     0.0   0.5966   0.625
V17     V     0.1553   0.7182   0.2083
V18     V     0.1553   0.7182   0.7083
V19     V     0.8447   0.7182   0.0417
V20     V     0.8447   0.7182   0.5417
Ti21     Ti     0.1051   0.7015   0.4583
Ti22     Ti     0.1051   0.7015   0.9583
Ti23     Ti     0.8949   0.7015   0.2917
Ti24     Ti     0.8949   0.7015   0.7917
Ce25     Ce     0.5   0.0632   0.375
Ce26     Ce     0.5   0.0632   0.875
Er27     Er     0.5   0.0966   0.125
Er28     Er     0.5   0.0966   0.625
V29     V     0.3447   0.2182   0.2083
V30     V     0.3447   0.2182   0.7083
V31     V     0.6553   0.2182   0.0417
V32     V     0.6553   0.2182   0.5417
Ti33     Ti     0.6051   0.2015   0.2917
Ti34     Ti     0.6051   0.2015   0.7917
Ti35     Ti     0.3949   0.2015   0.4583
Ti36     Ti     0.3949   0.2015   0.9583
Ce37     Ce     0.0   0.4368   0.125
Ce38     Ce     0.0   0.4368   0.625
Er39     Er     0.0   0.4034   0.375
Er40     Er     0.0   0.4034   0.875
V41     V     0.8447   0.2818   0.2917
V42     V     0.8447   0.2818   0.7917
V43     V     0.1553   0.2818   0.4583
V44     V     0.1553   0.2818   0.9583
Ti45     Ti     0.8949   0.2985   0.0417
Ti46     Ti     0.8949   0.2985   0.5417
Ti47     Ti     0.1051   0.2985   0.2083
Ti48     Ti     0.1051   0.2985   0.7083
loop_
_geom_bond_atom_site_label_1
_geom_bond_atom_site_label_2
_geom_bond_distance
_geom_bond_site_symmetry_2
_ccdc_geom_bond_type
Ce1     Er4    10.0   1_554     S
Ce1     Ti11    10.0   .     S
Ce1     Ti9    10.0   .     S
Ce1     Er3    10.0   .     S
Ce1     Er27    10.0   1_565     S
Ce2     Er3    10.0   .     S
Ce2     Ti12    10.0   .     S
Ce2     Ti10    10.0   .     S
Ce2     Er4    10.0   .     S
Ce2     Er28    10.0   1_565     S
Er3     Ti10    10.0   .     S
Er3     Ti11    10.0   .     S
Er3     V5    10.0   .     S
Er3     V7    10.0   .     S
Er3     Ce25    10.0   1_565     S
Er4     Ti9    10.0   1_556     S
Er4     Ce1    10.0   1_556     S
Er4     Ti12    10.0   .     S
Er4     V6    10.0   .     S
Er4     V8    10.0   .     S
Er4     Ce26    10.0   1_565     S
V5     Ti23    10.0   .     S
V5     Ti10    10.0   .     S
V5     Ti11    10.0   .     S
V5     Ti9    10.0   .     S
V6     Ti24    10.0   .     S
V6     Ti9    10.0   1_556     S
V6     Ti12    10.0   .     S
V6     Ti10    10.0   .     S
V7     Ti21    10.0   .     S
V7     Ti11    10.0   .     S
V7     Ti10    10.0   .     S
V7     Ti12    10.0   .     S
V8     Ti22    10.0   .     S
V8     Ti12    10.0   .     S
V8     Ti9    10.0   1_556     S
V8     Ti11    10.0   1_556     S
Ti9     Er4    10.0   1_554     S
Ti9     V6    10.0   1_554     S
Ti9     V8    10.0   1_554     S
Ti9     Ti11    10.0   .     S
Ti9     V19    10.0   .     S
Ti10     Ti12    10.0   .     S
Ti10     V20    10.0   .     S
Ti11     V8    10.0   1_554     S
Ti11     V17    10.0   .     S
Ti12     V18    10.0   .     S
Ce13     Ti21    10.0   .     S
Ce13     Ti23    10.0   1_455     S
Ce13     Er15    10.0   .     S
Ce13     Er16    10.0   .     S
Ce13     Er39    10.0   .     S
Ce14     Ti22    10.0   .     S
Ce14     Ti24    10.0   1_455     S
Ce14     Er16    10.0   .     S
Ce14     Er15    10.0   1_556     S
Ce14     Er40    10.0   .     S
Er15     Ti23    10.0   1_455     S
Er15     Ti22    10.0   1_554     S
Er15     Ce14    10.0   1_554     S
Er15     V17    10.0   .     S
Er15     V19    10.0   1_455     S
Er15     Ce37    10.0   .     S
Er16     Ti24    10.0   1_455     S
Er16     Ti21    10.0   .     S
Er16     V18    10.0   .     S
Er16     V20    10.0   1_455     S
Er16     Ce38    10.0   .     S
V17     Ti22    10.0   1_554     S
V17     Ti23    10.0   1_455     S
V17     Ti21    10.0   .     S
V18     Ti21    10.0   .     S
V18     Ti24    10.0   1_455     S
V18     Ti22    10.0   .     S
V19     Ti23    10.0   .     S
V19     Ti22    10.0   1_654     S
V19     Er15    10.0   1_655     S
V19     Ti24    10.0   1_554     S
V20     Ti24    10.0   .     S
V20     Ti21    10.0   1_655     S
V20     Er16    10.0   1_655     S
V20     Ti23    10.0   .     S
Ti21     V20    10.0   1_455     S
Ti21     Ti23    10.0   1_455     S
Ti22     Er15    10.0   1_556     S
Ti22     V17    10.0   1_556     S
Ti22     V19    10.0   1_456     S
Ti22     Ti24    10.0   1_455     S
Ti23     Ce13    10.0   1_655     S
Ti23     Er15    10.0   1_655     S
Ti23     V17    10.0   1_655     S
Ti23     Ti21    10.0   1_655     S
Ti24     Ce14    10.0   1_655     S
Ti24     Er16    10.0   1_655     S
Ti24     V18    10.0   1_655     S
Ti24     Ti22    10.0   1_655     S
Ti24     V19    10.0   1_556     S
Ce25     Er28    10.0   .     S
Ce25     Ti33    10.0   .     S
Ce25     Ti35    10.0   .     S
Ce25     Er27    10.0   .     S
Ce25     Er3    10.0   1_545     S
Ce26     Er27    10.0   1_556     S
Ce26     Ti34    10.0   .     S
Ce26     Ti36    10.0   .     S
Ce26     Er28    10.0   .     S
Ce26     Er4    10.0   1_545     S
Er27     Ti36    10.0   1_554     S
Er27     Ce26    10.0   1_554     S
Er27     Ti33    10.0   .     S
Er27     V29    10.0   .     S
Er27     V31    10.0   .     S
Er27     Ce1    10.0   1_545     S
Er28     Ti35    10.0   .     S
Er28     Ti34    10.0   .     S
Er28     V30    10.0   .     S
Er28     V32    10.0   .     S
Er28     Ce2    10.0   1_545     S
V29     Ti47    10.0   .     S
V29     Ti36    10.0   1_554     S
V29     Ti33    10.0   .     S
V29     Ti35    10.0   .     S
V30     Ti48    10.0   .     S
V30     Ti35    10.0   .     S
V30     Ti34    10.0   .     S
V30     Ti36    10.0   .     S
V31     Ti45    10.0   .     S
V31     Ti33    10.0   .     S
V31     Ti36    10.0   1_554     S
V31     Ti34    10.0   1_554     S
V32     Ti46    10.0   .     S
V32     Ti34    10.0   .     S
V32     Ti35    10.0   .     S
V32     Ti33    10.0   .     S
Ti33     Ti35    10.0   .     S
Ti33     V41    10.0   .     S
Ti34     Ti36    10.0   .     S
Ti34     V31    10.0   1_556     S
Ti34     V42    10.0   .     S
Ti35     V43    10.0   .     S
Ti36     Er27    10.0   1_556     S
Ti36     V29    10.0   1_556     S
Ti36     V31    10.0   1_556     S
Ti36     V44    10.0   .     S
Ce37     Er40    10.0   1_554     S
Ce37     Ti47    10.0   .     S
Ce37     Ti45    10.0   1_455     S
Ce37     Er39    10.0   .     S
Ce38     Er39    10.0   .     S
Ce38     Ti48    10.0   .     S
Ce38     Ti46    10.0   1_455     S
Ce38     Er40    10.0   .     S
Er39     Ti46    10.0   1_455     S
Er39     Ti47    10.0   .     S
Er39     V41    10.0   1_455     S
Er39     V43    10.0   .     S
Er40     Ti45    10.0   1_456     S
Er40     Ce37    10.0   1_556     S
Er40     Ti48    10.0   .     S
Er40     V42    10.0   1_455     S
Er40     V44    10.0   .     S
V41     Ti46    10.0   .     S
V41     Ti47    10.0   1_655     S
V41     Er39    10.0   1_655     S
V41     Ti45    10.0   .     S
V42     Ti45    10.0   1_556     S
V42     Ti48    10.0   1_655     S
V42     Er40    10.0   1_655     S
V42     Ti46    10.0   .     S
V43     Ti47    10.0   .     S
V43     Ti46    10.0   1_455     S
V43     Ti48    10.0   .     S
V44     Ti48    10.0   .     S
V44     Ti45    10.0   1_456     S
V44     Ti47    10.0   1_556     S
Ti45     Er40    10.0   1_654     S
Ti45     Ce37    10.0   1_655     S
Ti45     V42    10.0   1_554     S
Ti45     V44    10.0   1_654     S
Ti45     Ti47    10.0   1_655     S
Ti46     Er39    10.0   1_655     S
Ti46     Ce38    10.0   1_655     S
Ti46     V43    10.0   1_655     S
Ti46     Ti48    10.0   1_655     S
Ti47     V41    10.0   1_455     S
Ti47     Ti45    10.0   1_455     S
Ti47     V44    10.0   1_554     S
Ti48     V42    10.0   1_455     S
Ti48     Ti46    10.0   1_455     S
