data_qsm
_audit_creation_date              2019-12-31
_audit_creation_method            'Pymatgen'
_symmetry_space_group_name_H-M    'P1'
_symmetry_Int_Tables_number       1
loop_
_symmetry_equiv_pos_as_xyz
  x,y,z
_cell_length_a                    61.4906
_cell_length_b                    61.4906
_cell_length_c                    39.5994
_cell_angle_alpha                 90.0
_cell_angle_beta                 90.0
_cell_angle_gamma                 120.0
loop_
_atom_site_label
_atom_site_type_symbol
_atom_site_fract_x
_atom_site_fract_y
_atom_site_fract_z
Er1     Er     0.243   0.3333   0.4167
Er2     Er     0.243   0.3333   0.9167
Er3     Er     0.0904   0.3333   0.4167
Er4     Er     0.0904   0.3333   0.9167
Er5     Er     0.3333   0.243   0.0833
Er6     Er     0.3333   0.243   0.5833
Er7     Er     0.3333   0.0904   0.0833
Er8     Er     0.3333   0.0904   0.5833
V9     V     0.3333   0.253   0.3333
V10     V     0.3333   0.253   0.8333
V11     V     0.253   0.3333   0.1667
V12     V     0.253   0.3333   0.6667
V13     V     0.4137   0.4137   0.0
V14     V     0.4137   0.4137   0.5
Er15     Er     0.4237   0.4237   0.25
Er16     Er     0.4237   0.4237   0.75
Er17     Er     0.5763   0.5763   0.25
Er18     Er     0.5763   0.5763   0.75
Er19     Er     0.9096   0.6667   0.0833
Er20     Er     0.9096   0.6667   0.5833
Er21     Er     0.757   0.6667   0.0833
Er22     Er     0.757   0.6667   0.5833
Er23     Er     0.6667   0.9096   0.4167
Er24     Er     0.6667   0.9096   0.9167
Er25     Er     0.6667   0.757   0.4167
Er26     Er     0.6667   0.757   0.9167
V27     V     0.5863   0.5863   0.0
V28     V     0.5863   0.5863   0.5
V29     V     0.6667   0.747   0.1667
V30     V     0.6667   0.747   0.6667
V31     V     0.747   0.6667   0.3333
V32     V     0.747   0.6667   0.8333
Er33     Er     0.243   0.9096   0.4167
Er34     Er     0.243   0.9096   0.9167
Er35     Er     0.0904   0.757   0.4167
Er36     Er     0.0904   0.757   0.9167
V37     V     1.0   0.5863   0.0
V38     V     1.0   0.5863   0.5
V39     V     0.0804   0.747   0.1667
V40     V     0.0804   0.747   0.6667
V41     V     0.9196   0.6667   0.3333
V42     V     0.9196   0.6667   0.8333
Er43     Er     1.0   0.4237   0.25
Er44     Er     1.0   0.4237   0.75
Er45     Er     1.0   0.5763   0.25
Er46     Er     1.0   0.5763   0.75
V47     V     0.9196   0.253   0.3333
V48     V     0.9196   0.253   0.8333
V49     V     0.0   0.4137   0.0
V50     V     0.0   0.4137   0.5
V51     V     0.0804   0.3333   0.1667
V52     V     0.0804   0.3333   0.6667
Er53     Er     0.9096   0.243   0.0833
Er54     Er     0.9096   0.243   0.5833
Er55     Er     0.757   0.0904   0.0833
Er56     Er     0.757   0.0904   0.5833
V57     V     0.253   0.9196   0.1667
V58     V     0.253   0.9196   0.6667
V59     V     0.4137   0.0   0.0
V60     V     0.4137   0.0   0.5
V61     V     0.3333   0.0804   0.3333
V62     V     0.3333   0.0804   0.8333
Er63     Er     0.4237   0.0   0.25
Er64     Er     0.4237   0.0   0.75
Er65     Er     0.5763   0.0   0.25
Er66     Er     0.5763   0.0   0.75
V67     V     0.5863   0.0   0.0
V68     V     0.5863   0.0   0.5
V69     V     0.6667   0.9196   0.1667
V70     V     0.6667   0.9196   0.6667
V71     V     0.747   0.0804   0.3333
V72     V     0.747   0.0804   0.8333
loop_
_geom_bond_atom_site_label_1
_geom_bond_atom_site_label_2
_geom_bond_distance
_geom_bond_site_symmetry_2
_ccdc_geom_bond_type
Er1     Er3    9.383   .     S
Er1     V11    9.919   .     S
Er1     V12    9.919   .     S
Er1     V14    9.678   .     S
Er1     V9    9.678   .     S
Er2     Er4    9.383   .     S
Er2     V12    9.919   .     S
Er2     V11    9.919   1_556     S
Er2     V13    9.678   1_556     S
Er2     V10    9.678   .     S
Er3     V51    9.919   .     S
Er3     V52    9.919   .     S
Er3     V47    9.678   1_455     S
Er3     V50    9.678   .     S
Er4     V52    9.919   .     S
Er4     V51    9.919   1_556     S
Er4     V48    9.678   1_455     S
Er4     V49    9.678   1_556     S
Er5     Er7    9.383   .     S
Er5     V10    9.919   1_554     S
Er5     V9    9.919   .     S
Er5     V13    9.678   .     S
Er5     V11    9.678   .     S
Er6     Er8    9.383   .     S
Er6     V9    9.919   .     S
Er6     V10    9.919   .     S
Er6     V14    9.678   .     S
Er6     V12    9.678   .     S
Er7     V62    9.919   1_554     S
Er7     V61    9.919   .     S
Er7     V57    9.678   1_545     S
Er7     V59    9.678   .     S
Er8     V61    9.919   .     S
Er8     V62    9.919   .     S
Er8     V58    9.678   1_545     S
Er8     V60    9.678   .     S
V9     V14    10.809   .     S
V9     V11    10.809   .     S
V9     Er15    9.678   .     S
V9     V61    10.612   .     S
V10     Er5    9.919   1_556     S
V10     V13    10.809   1_556     S
V10     V12    10.809   .     S
V10     Er16    9.678   .     S
V10     V62    10.612   .     S
V11     Er2    9.919   1_554     S
V11     V13    10.809   .     S
V11     Er15    9.678   .     S
V11     V51    10.612   .     S
V12     V14    10.809   .     S
V12     Er16    9.678   .     S
V12     V52    10.612   .     S
V13     Er16    9.919   1_554     S
V13     Er15    9.919   .     S
V13     V10    10.809   1_554     S
V13     Er2    9.678   1_554     S
V13     V27    10.612   .     S
V14     Er15    9.919   .     S
V14     Er16    9.919   .     S
V14     V28    10.612   .     S
Er15     Er17    9.383   .     S
Er16     Er18    9.383   .     S
Er16     V13    9.919   1_556     S
Er17     V28    9.919   .     S
Er17     V27    9.919   .     S
Er17     V29    9.678   .     S
Er17     V31    9.678   .     S
Er18     V27    9.919   1_556     S
Er18     V28    9.919   .     S
Er18     V30    9.678   .     S
Er18     V32    9.678   .     S
Er19     Er21    9.383   .     S
Er19     V42    9.919   1_554     S
Er19     V41    9.919   .     S
Er19     V39    9.678   1_655     S
Er19     V37    9.678   .     S
Er20     Er22    9.383   .     S
Er20     V41    9.919   .     S
Er20     V42    9.919   .     S
Er20     V40    9.678   1_655     S
Er20     V38    9.678   .     S
Er21     V32    9.919   1_554     S
Er21     V31    9.919   .     S
Er21     V27    9.678   .     S
Er21     V29    9.678   .     S
Er22     V31    9.919   .     S
Er22     V32    9.919   .     S
Er22     V28    9.678   .     S
Er22     V30    9.678   .     S
Er23     Er25    9.383   .     S
Er23     V70    9.919   .     S
Er23     V69    9.919   .     S
Er23     V71    9.678   1_565     S
Er23     V68    9.678   1_565     S
Er24     Er26    9.383   .     S
Er24     V69    9.919   1_556     S
Er24     V70    9.919   .     S
Er24     V72    9.678   1_565     S
Er24     V67    9.678   1_566     S
Er25     V29    9.919   .     S
Er25     V30    9.919   .     S
Er25     V28    9.678   .     S
Er25     V31    9.678   .     S
Er26     V30    9.919   .     S
Er26     V29    9.919   1_556     S
Er26     V27    9.678   1_556     S
Er26     V32    9.678   .     S
V27     Er18    9.919   1_554     S
V27     V32    10.809   1_554     S
V27     V29    10.809   .     S
V27     Er26    9.678   1_554     S
V28     V31    10.809   .     S
V28     V30    10.809   .     S
V29     Er26    9.919   1_554     S
V29     V31    10.809   .     S
V29     V69    10.612   .     S
V30     V32    10.809   .     S
V30     V70    10.612   .     S
V31     V41    10.612   .     S
V32     Er21    9.919   1_556     S
V32     V27    10.809   1_556     S
V32     V42    10.612   .     S
Er33     Er35    9.383   .     S
Er33     V57    9.919   .     S
Er33     V58    9.919   .     S
Er33     V60    9.678   1_565     S
Er33     V61    9.678   1_565     S
Er34     Er36    9.383   .     S
Er34     V58    9.919   .     S
Er34     V57    9.919   1_556     S
Er34     V59    9.678   1_566     S
Er34     V62    9.678   1_565     S
Er35     V40    9.919   .     S
Er35     V39    9.919   .     S
Er35     V38    9.678   1_455     S
Er35     V41    9.678   1_455     S
Er36     V39    9.919   1_556     S
Er36     V40    9.919   .     S
Er36     V37    9.678   1_456     S
Er36     V42    9.678   1_455     S
V37     Er46    9.919   1_554     S
V37     Er45    9.919   .     S
V37     V42    10.809   1_554     S
V37     V39    10.809   1_655     S
V37     Er36    9.678   1_654     S
V37     V49    10.612   1_655     S
V38     Er45    9.919   .     S
V38     Er46    9.919   .     S
V38     V41    10.809   .     S
V38     V40    10.809   1_655     S
V38     Er35    9.678   1_655     S
V38     V50    10.612   1_655     S
V39     Er36    9.919   1_554     S
V39     V37    10.809   1_455     S
V39     V41    10.809   1_455     S
V39     Er19    9.678   1_455     S
V39     Er45    9.678   1_455     S
V39     V57    10.612   .     S
V40     V38    10.809   1_455     S
V40     V42    10.809   1_455     S
V40     Er20    9.678   1_455     S
V40     Er46    9.678   1_455     S
V40     V58    10.612   .     S
V41     V39    10.809   1_655     S
V41     Er35    9.678   1_655     S
V41     Er45    9.678   .     S
V42     Er19    9.919   1_556     S
V42     V37    10.809   1_556     S
V42     V40    10.809   1_655     S
V42     Er36    9.678   1_655     S
V42     Er46    9.678   .     S
Er43     Er45    9.383   .     S
Er43     V49    9.919   1_655     S
Er43     V50    9.919   1_655     S
Er43     V51    9.678   1_655     S
Er43     V47    9.678   .     S
Er44     Er46    9.383   .     S
Er44     V50    9.919   1_655     S
Er44     V49    9.919   1_656     S
Er44     V52    9.678   1_655     S
Er44     V48    9.678   .     S
Er45     V39    9.678   1_655     S
Er46     V37    9.919   1_556     S
Er46     V40    9.678   1_655     S
V47     Er53    9.919   .     S
V47     Er54    9.919   .     S
V47     V51    10.809   1_655     S
V47     V50    10.809   1_655     S
V47     Er3    9.678   1_655     S
V47     V71    10.612   .     S
V48     Er54    9.919   .     S
V48     Er53    9.919   1_556     S
V48     V52    10.809   1_655     S
V48     V49    10.809   1_656     S
V48     Er4    9.678   1_655     S
V48     V72    10.612   .     S
V49     Er43    9.919   1_455     S
V49     Er44    9.919   1_454     S
V49     V51    10.809   .     S
V49     V48    10.809   1_454     S
V49     Er53    9.678   1_455     S
V49     Er4    9.678   1_554     S
V49     V37    10.612   1_455     S
V50     Er44    9.919   1_455     S
V50     Er43    9.919   1_455     S
V50     V52    10.809   .     S
V50     V47    10.809   1_455     S
V50     Er54    9.678   1_455     S
V50     V38    10.612   1_455     S
V51     Er4    9.919   1_554     S
V51     V47    10.809   1_455     S
V51     Er43    9.678   1_455     S
V51     Er53    9.678   1_455     S
V52     V48    10.809   1_455     S
V52     Er44    9.678   1_455     S
V52     Er54    9.678   1_455     S
Er53     Er55    9.383   .     S
Er53     V48    9.919   1_554     S
Er53     V49    9.678   1_655     S
Er53     V51    9.678   1_655     S
Er54     Er56    9.383   .     S
Er54     V50    9.678   1_655     S
Er54     V52    9.678   1_655     S
Er55     V72    9.919   1_554     S
Er55     V71    9.919   .     S
Er55     V67    9.678   .     S
Er55     V69    9.678   1_545     S
Er56     V71    9.919   .     S
Er56     V72    9.919   .     S
Er56     V68    9.678   .     S
Er56     V70    9.678   1_545     S
V57     Er34    9.919   1_554     S
V57     V61    10.809   1_565     S
V57     V59    10.809   1_565     S
V57     Er63    9.678   1_565     S
V57     Er7    9.678   1_565     S
V58     V62    10.809   1_565     S
V58     V60    10.809   1_565     S
V58     Er64    9.678   1_565     S
V58     Er8    9.678   1_565     S
V59     Er64    9.919   1_554     S
V59     Er63    9.919   .     S
V59     V62    10.809   1_554     S
V59     V57    10.809   1_545     S
V59     Er34    9.678   1_544     S
V59     V67    10.612   .     S
V60     Er63    9.919   .     S
V60     Er64    9.919   .     S
V60     V61    10.809   .     S
V60     V58    10.809   1_545     S
V60     Er33    9.678   1_545     S
V60     V68    10.612   .     S
V61     V57    10.809   1_545     S
V61     Er33    9.678   1_545     S
V61     Er63    9.678   .     S
V62     Er7    9.919   1_556     S
V62     V59    10.809   1_556     S
V62     V58    10.809   1_545     S
V62     Er34    9.678   1_545     S
V62     Er64    9.678   .     S
Er63     Er65    9.383   .     S
Er63     V57    9.678   1_545     S
Er64     Er66    9.383   .     S
Er64     V59    9.919   1_556     S
Er64     V58    9.678   1_545     S
Er65     V68    9.919   .     S
Er65     V67    9.919   .     S
Er65     V69    9.678   1_545     S
Er65     V71    9.678   .     S
Er66     V67    9.919   1_556     S
Er66     V68    9.919   .     S
Er66     V70    9.678   1_545     S
Er66     V72    9.678   .     S
V67     Er66    9.919   1_554     S
V67     V72    10.809   1_554     S
V67     V69    10.809   1_545     S
V67     Er24    9.678   1_544     S
V68     V71    10.809   .     S
V68     V70    10.809   1_545     S
V68     Er23    9.678   1_545     S
V69     Er24    9.919   1_554     S
V69     V67    10.809   1_565     S
V69     V71    10.809   1_565     S
V69     Er55    9.678   1_565     S
V69     Er65    9.678   1_565     S
V70     V68    10.809   1_565     S
V70     V72    10.809   1_565     S
V70     Er56    9.678   1_565     S
V70     Er66    9.678   1_565     S
V71     V69    10.809   1_545     S
V71     Er23    9.678   1_545     S
V72     Er55    9.919   1_556     S
V72     V67    10.809   1_556     S
V72     V70    10.809   1_545     S
V72     Er24    9.678   1_545     S
