data_qtz-e
_audit_creation_date              2019-12-31
_audit_creation_method            'Pymatgen'
_symmetry_space_group_name_H-M    'P1'
_symmetry_Int_Tables_number       1
loop_
_symmetry_equiv_pos_as_xyz
  x,y,z
_cell_length_a                    38.6374
_cell_length_b                    38.6374
_cell_length_c                    21.2129
_cell_angle_alpha                 90.0
_cell_angle_beta                 90.0
_cell_angle_gamma                 120.0
loop_
_atom_site_label
_atom_site_type_symbol
_atom_site_fract_x
_atom_site_fract_y
_atom_site_fract_z
V1     V     0.2887   0.3943   0.6667
V2     V     0.2887   0.8943   0.6667
V3     V     0.7887   0.3943   0.6667
V4     V     0.7887   0.8943   0.6667
V5     V     0.1057   0.2113   0.0
V6     V     0.1057   0.7113   0.0
V7     V     0.6057   0.2113   0.0
V8     V     0.6057   0.7113   0.0
V9     V     0.2113   0.1057   0.6667
V10     V     0.2113   0.6057   0.6667
V11     V     0.7113   0.1057   0.6667
V12     V     0.7113   0.6057   0.6667
V13     V     0.3943   0.1057   0.3333
V14     V     0.3943   0.6057   0.3333
V15     V     0.8943   0.1057   0.3333
V16     V     0.8943   0.6057   0.3333
V17     V     0.1057   0.3943   0.3333
V18     V     0.1057   0.8943   0.3333
V19     V     0.6057   0.3943   0.3333
V20     V     0.6057   0.8943   0.3333
V21     V     0.3943   0.2887   0.0
V22     V     0.3943   0.7887   0.0
V23     V     0.8943   0.2887   0.0
V24     V     0.8943   0.7887   0.0
loop_
_geom_bond_atom_site_label_1
_geom_bond_atom_site_label_2
_geom_bond_distance
_geom_bond_site_symmetry_2
_ccdc_geom_bond_type
V1     V17    10.0   .     S
V1     V5    10.0   1_556     S
V1     V21    10.0   1_556     S
V1     V9    10.0   .     S
V1     V14    10.0   .     S
V1     V10    10.0   .     S
V2     V18    10.0   .     S
V2     V6    10.0   1_556     S
V2     V22    10.0   1_556     S
V2     V10    10.0   .     S
V2     V13    10.0   1_565     S
V2     V9    10.0   1_565     S
V3     V19    10.0   .     S
V3     V7    10.0   1_556     S
V3     V23    10.0   1_556     S
V3     V11    10.0   .     S
V3     V16    10.0   .     S
V3     V12    10.0   .     S
V4     V20    10.0   .     S
V4     V8    10.0   1_556     S
V4     V24    10.0   1_556     S
V4     V12    10.0   .     S
V4     V15    10.0   1_565     S
V4     V11    10.0   1_565     S
V5     V1    10.0   1_554     S
V5     V9    10.0   1_554     S
V5     V17    10.0   .     S
V5     V23    10.0   1_455     S
V5     V15    10.0   1_455     S
V5     V21    10.0   .     S
V6     V2    10.0   1_554     S
V6     V10    10.0   1_554     S
V6     V18    10.0   .     S
V6     V24    10.0   1_455     S
V6     V16    10.0   1_455     S
V6     V22    10.0   .     S
V7     V3    10.0   1_554     S
V7     V11    10.0   1_554     S
V7     V19    10.0   .     S
V7     V21    10.0   .     S
V7     V13    10.0   .     S
V7     V23    10.0   .     S
V8     V4    10.0   1_554     S
V8     V12    10.0   1_554     S
V8     V20    10.0   .     S
V8     V22    10.0   .     S
V8     V14    10.0   .     S
V8     V24    10.0   .     S
V9     V5    10.0   1_556     S
V9     V21    10.0   1_556     S
V9     V13    10.0   .     S
V9     V18    10.0   1_545     S
V9     V2    10.0   1_545     S
V10     V6    10.0   1_556     S
V10     V22    10.0   1_556     S
V10     V14    10.0   .     S
V10     V17    10.0   .     S
V11     V7    10.0   1_556     S
V11     V23    10.0   1_556     S
V11     V15    10.0   .     S
V11     V20    10.0   1_545     S
V11     V4    10.0   1_545     S
V12     V8    10.0   1_556     S
V12     V24    10.0   1_556     S
V12     V16    10.0   .     S
V12     V19    10.0   .     S
V13     V2    10.0   1_545     S
V13     V18    10.0   1_545     S
V13     V21    10.0   .     S
V13     V19    10.0   .     S
V14     V17    10.0   .     S
V14     V22    10.0   .     S
V14     V20    10.0   .     S
V15     V4    10.0   1_545     S
V15     V20    10.0   1_545     S
V15     V23    10.0   .     S
V15     V5    10.0   1_655     S
V15     V17    10.0   1_655     S
V16     V19    10.0   .     S
V16     V24    10.0   .     S
V16     V6    10.0   1_655     S
V16     V18    10.0   1_655     S
V17     V23    10.0   1_455     S
V17     V15    10.0   1_455     S
V18     V9    10.0   1_565     S
V18     V13    10.0   1_565     S
V18     V24    10.0   1_455     S
V18     V16    10.0   1_455     S
V19     V21    10.0   .     S
V20     V11    10.0   1_565     S
V20     V15    10.0   1_565     S
V20     V22    10.0   .     S
V21     V1    10.0   1_554     S
V21     V9    10.0   1_554     S
V22     V2    10.0   1_554     S
V22     V10    10.0   1_554     S
V23     V3    10.0   1_554     S
V23     V11    10.0   1_554     S
V23     V17    10.0   1_655     S
V23     V5    10.0   1_655     S
V24     V4    10.0   1_554     S
V24     V12    10.0   1_554     S
V24     V18    10.0   1_655     S
V24     V6    10.0   1_655     S
