data_qtz-x
_audit_creation_date              2019-12-31
_audit_creation_method            'Pymatgen'
_symmetry_space_group_name_H-M    'P1'
_symmetry_Int_Tables_number       1
loop_
_symmetry_equiv_pos_as_xyz
  x,y,z
_cell_length_a                    30.0
_cell_length_b                    30.0
_cell_length_c                    25.9808
_cell_angle_alpha                 90.0
_cell_angle_beta                 90.0
_cell_angle_gamma                 120.0
loop_
_atom_site_label
_atom_site_type_symbol
_atom_site_fract_x
_atom_site_fract_y
_atom_site_fract_z
V1     V     0.0   0.1667   0.1667
V2     V     1.0   0.5   0.1667
V3     V     1.0   0.8333   0.1667
V4     V     0.3333   0.1667   0.1667
V5     V     0.3333   0.5   0.1667
V6     V     0.3333   0.8333   0.1667
V7     V     0.6667   0.1667   0.1667
V8     V     0.6667   0.5   0.1667
V9     V     0.6667   0.8333   0.1667
V10     V     0.1667   0.0   0.5
V11     V     0.1667   0.3333   0.5
V12     V     0.1667   0.6667   0.5
V13     V     0.5   0.0   0.5
V14     V     0.5   0.3333   0.5
V15     V     0.5   0.6667   0.5
V16     V     0.8333   0.0   0.5
V17     V     0.8333   0.3333   0.5
V18     V     0.8333   0.6667   0.5
V19     V     0.1667   0.1667   0.8333
V20     V     0.1667   0.5   0.8333
V21     V     0.1667   0.8333   0.8333
V22     V     0.5   0.1667   0.8333
V23     V     0.5   0.5   0.8333
V24     V     0.5   0.8333   0.8333
V25     V     0.8333   0.1667   0.8333
V26     V     0.8333   0.5   0.8333
V27     V     0.8333   0.8333   0.8333
loop_
_geom_bond_atom_site_label_1
_geom_bond_atom_site_label_2
_geom_bond_distance
_geom_bond_site_symmetry_2
_ccdc_geom_bond_type
V1     V16    10.0   1_455     S
V1     V11    10.0   .     S
V1     V3    10.0   1_445     S
V1     V2    10.0   1_455     S
V1     V19    10.0   1_554     S
V1     V25    10.0   1_454     S
V2     V17    10.0   .     S
V2     V12    10.0   1_655     S
V2     V1    10.0   1_655     S
V2     V3    10.0   .     S
V2     V20    10.0   1_654     S
V2     V26    10.0   1_554     S
V3     V18    10.0   .     S
V3     V10    10.0   1_665     S
V3     V1    10.0   1_665     S
V3     V21    10.0   1_654     S
V3     V27    10.0   1_554     S
V4     V10    10.0   .     S
V4     V14    10.0   .     S
V4     V6    10.0   1_545     S
V4     V5    10.0   .     S
V4     V22    10.0   1_554     S
V4     V19    10.0   1_554     S
V5     V11    10.0   .     S
V5     V15    10.0   .     S
V5     V6    10.0   .     S
V5     V23    10.0   1_554     S
V5     V20    10.0   1_554     S
V6     V12    10.0   .     S
V6     V13    10.0   1_565     S
V6     V4    10.0   1_565     S
V6     V24    10.0   1_554     S
V6     V21    10.0   1_554     S
V7     V13    10.0   .     S
V7     V17    10.0   .     S
V7     V9    10.0   1_545     S
V7     V8    10.0   .     S
V7     V25    10.0   1_554     S
V7     V22    10.0   1_554     S
V8     V14    10.0   .     S
V8     V18    10.0   .     S
V8     V9    10.0   .     S
V8     V26    10.0   1_554     S
V8     V23    10.0   1_554     S
V9     V15    10.0   .     S
V9     V16    10.0   1_565     S
V9     V7    10.0   1_565     S
V9     V27    10.0   1_554     S
V9     V24    10.0   1_554     S
V10     V3    10.0   1_445     S
V10     V19    10.0   .     S
V10     V21    10.0   1_545     S
V10     V16    10.0   1_455     S
V10     V13    10.0   .     S
V11     V20    10.0   .     S
V11     V19    10.0   .     S
V11     V17    10.0   1_455     S
V11     V14    10.0   .     S
V12     V2    10.0   1_455     S
V12     V21    10.0   .     S
V12     V20    10.0   .     S
V12     V18    10.0   1_455     S
V12     V15    10.0   .     S
V13     V6    10.0   1_545     S
V13     V22    10.0   .     S
V13     V24    10.0   1_545     S
V13     V16    10.0   .     S
V14     V23    10.0   .     S
V14     V22    10.0   .     S
V14     V17    10.0   .     S
V15     V24    10.0   .     S
V15     V23    10.0   .     S
V15     V18    10.0   .     S
V16     V1    10.0   1_655     S
V16     V9    10.0   1_545     S
V16     V25    10.0   .     S
V16     V27    10.0   1_545     S
V16     V10    10.0   1_655     S
V17     V26    10.0   .     S
V17     V25    10.0   .     S
V17     V11    10.0   1_655     S
V18     V27    10.0   .     S
V18     V26    10.0   .     S
V18     V12    10.0   1_655     S
V19     V1    10.0   1_556     S
V19     V4    10.0   1_556     S
V19     V27    10.0   1_445     S
V19     V23    10.0   .     S
V20     V2    10.0   1_456     S
V20     V5    10.0   1_556     S
V20     V25    10.0   1_455     S
V20     V24    10.0   .     S
V21     V10    10.0   1_565     S
V21     V3    10.0   1_456     S
V21     V6    10.0   1_556     S
V21     V26    10.0   1_455     S
V21     V22    10.0   1_565     S
V22     V4    10.0   1_556     S
V22     V7    10.0   1_556     S
V22     V21    10.0   1_545     S
V22     V26    10.0   .     S
V23     V5    10.0   1_556     S
V23     V8    10.0   1_556     S
V23     V27    10.0   .     S
V24     V13    10.0   1_565     S
V24     V6    10.0   1_556     S
V24     V9    10.0   1_556     S
V24     V25    10.0   1_565     S
V25     V7    10.0   1_556     S
V25     V1    10.0   1_656     S
V25     V20    10.0   1_655     S
V25     V24    10.0   1_545     S
V26     V8    10.0   1_556     S
V26     V2    10.0   1_556     S
V26     V21    10.0   1_655     S
V27     V16    10.0   1_565     S
V27     V9    10.0   1_556     S
V27     V3    10.0   1_556     S
V27     V19    10.0   1_665     S
