data_qtz
_audit_creation_date              2019-12-31
_audit_creation_method            'Pymatgen'
_symmetry_space_group_name_H-M    'P1'
_symmetry_Int_Tables_number       1
loop_
_symmetry_equiv_pos_as_xyz
  x,y,z
_cell_length_a                    32.6632
_cell_length_b                    32.6632
_cell_length_c                    34.634
_cell_angle_alpha                 90.0
_cell_angle_beta                 90.0
_cell_angle_gamma                 120.0
loop_
_atom_site_label
_atom_site_type_symbol
_atom_site_fract_x
_atom_site_fract_y
_atom_site_fract_z
V1     V     0.25   0.0   0.25
V2     V     0.25   0.0   0.75
V3     V     0.25   0.5   0.25
V4     V     0.25   0.5   0.75
V5     V     0.75   0.0   0.25
V6     V     0.75   0.0   0.75
V7     V     0.75   0.5   0.25
V8     V     0.75   0.5   0.75
V9     V     0.25   0.25   0.4167
V10     V     0.25   0.25   0.9167
V11     V     0.25   0.75   0.4167
V12     V     0.25   0.75   0.9167
V13     V     0.75   0.25   0.4167
V14     V     0.75   0.25   0.9167
V15     V     0.75   0.75   0.4167
V16     V     0.75   0.75   0.9167
V17     V     1.0   0.25   0.0833
V18     V     1.0   0.25   0.5833
V19     V     0.0   0.75   0.0833
V20     V     0.0   0.75   0.5833
V21     V     0.5   0.25   0.0833
V22     V     0.5   0.25   0.5833
V23     V     0.5   0.75   0.0833
V24     V     0.5   0.75   0.5833
loop_
_geom_bond_atom_site_label_1
_geom_bond_atom_site_label_2
_geom_bond_distance
_geom_bond_site_symmetry_2
_ccdc_geom_bond_type
V1     V11    10.0   1_545     S
V1     V9    10.0   .     S
V1     V21    10.0   .     S
V1     V19    10.0   1_545     S
V2     V12    10.0   1_545     S
V2     V10    10.0   .     S
V2     V22    10.0   .     S
V2     V20    10.0   1_545     S
V3     V9    10.0   .     S
V3     V11    10.0   .     S
V3     V23    10.0   .     S
V3     V17    10.0   1_455     S
V4     V10    10.0   .     S
V4     V12    10.0   .     S
V4     V24    10.0   .     S
V4     V18    10.0   1_455     S
V5     V15    10.0   1_545     S
V5     V13    10.0   .     S
V5     V17    10.0   .     S
V5     V23    10.0   1_545     S
V6     V16    10.0   1_545     S
V6     V14    10.0   .     S
V6     V18    10.0   .     S
V6     V24    10.0   1_545     S
V7     V13    10.0   .     S
V7     V15    10.0   .     S
V7     V19    10.0   1_655     S
V7     V21    10.0   .     S
V8     V14    10.0   .     S
V8     V16    10.0   .     S
V8     V20    10.0   1_655     S
V8     V22    10.0   .     S
V9     V22    10.0   .     S
V9     V18    10.0   1_455     S
V10     V21    10.0   1_556     S
V10     V17    10.0   1_456     S
V11     V1    10.0   1_565     S
V11     V24    10.0   .     S
V11     V20    10.0   .     S
V12     V2    10.0   1_565     S
V12     V23    10.0   1_556     S
V12     V19    10.0   1_556     S
V13     V18    10.0   .     S
V13     V22    10.0   .     S
V14     V17    10.0   1_556     S
V14     V21    10.0   1_556     S
V15     V5    10.0   1_565     S
V15     V20    10.0   1_655     S
V15     V24    10.0   .     S
V16     V6    10.0   1_565     S
V16     V19    10.0   1_656     S
V16     V23    10.0   1_556     S
V17     V14    10.0   1_554     S
V17     V10    10.0   1_654     S
V17     V3    10.0   1_655     S
V18     V9    10.0   1_655     S
V18     V4    10.0   1_655     S
V19     V16    10.0   1_454     S
V19     V12    10.0   1_554     S
V19     V7    10.0   1_455     S
V19     V1    10.0   1_565     S
V20     V15    10.0   1_455     S
V20     V8    10.0   1_455     S
V20     V2    10.0   1_565     S
V21     V10    10.0   1_554     S
V21     V14    10.0   1_554     S
V23     V12    10.0   1_554     S
V23     V16    10.0   1_554     S
V23     V5    10.0   1_565     S
V24     V6    10.0   1_565     S
