data_rad
_audit_creation_date              2019-12-31
_audit_creation_method            'Pymatgen'
_symmetry_space_group_name_H-M    'P1'
_symmetry_Int_Tables_number       1
loop_
_symmetry_equiv_pos_as_xyz
  x,y,z
_cell_length_a                    43.3663
_cell_length_b                    66.6309
_cell_length_c                    34.412
_cell_angle_alpha                 90.0
_cell_angle_beta                 90.0
_cell_angle_gamma                 90.0
loop_
_atom_site_label
_atom_site_type_symbol
_atom_site_fract_x
_atom_site_fract_y
_atom_site_fract_z
Er1     Er     0.691   0.68   0.375
Er2     Er     0.691   0.68   0.875
V3     V     0.6153   0.7385   0.125
V4     V     0.6153   0.7385   0.625
Er5     Er     0.309   0.68   0.375
Er6     Er     0.309   0.68   0.875
V7     V     0.3847   0.7385   0.125
V8     V     0.3847   0.7385   0.625
Er9     Er     0.191   0.82   0.125
Er10     Er     0.191   0.82   0.625
V11     V     0.1153   0.7615   0.375
V12     V     0.1153   0.7615   0.875
Er13     Er     0.809   0.82   0.125
Er14     Er     0.809   0.82   0.625
V15     V     0.8847   0.7615   0.375
V16     V     0.8847   0.7615   0.875
Ti17     Ti     0.6153   0.5382   0.375
Ti18     Ti     0.6153   0.5382   0.875
Ti19     Ti     0.3847   0.5382   0.375
Ti20     Ti     0.3847   0.5382   0.875
Ti21     Ti     0.6153   0.4618   0.125
Ti22     Ti     0.6153   0.4618   0.625
Ti23     Ti     0.3847   0.4618   0.125
Ti24     Ti     0.3847   0.4618   0.625
Ti25     Ti     0.8847   0.0382   0.375
Ti26     Ti     0.8847   0.0382   0.875
Ti27     Ti     0.1153   0.0382   0.375
Ti28     Ti     0.1153   0.0382   0.875
Ti29     Ti     0.8847   0.9618   0.125
Ti30     Ti     0.8847   0.9618   0.625
Ti31     Ti     0.1153   0.9618   0.125
Ti32     Ti     0.1153   0.9618   0.625
Er33     Er     0.691   0.32   0.125
Er34     Er     0.691   0.32   0.625
V35     V     0.6153   0.2615   0.375
V36     V     0.6153   0.2615   0.875
Er37     Er     0.309   0.32   0.125
Er38     Er     0.309   0.32   0.625
V39     V     0.3847   0.2615   0.375
V40     V     0.3847   0.2615   0.875
Er41     Er     0.191   0.18   0.375
Er42     Er     0.191   0.18   0.875
V43     V     0.1153   0.2385   0.125
V44     V     0.1153   0.2385   0.625
Er45     Er     0.809   0.18   0.375
Er46     Er     0.809   0.18   0.875
V47     V     0.8847   0.2385   0.125
V48     V     0.8847   0.2385   0.625
loop_
_geom_bond_atom_site_label_1
_geom_bond_atom_site_label_2
_geom_bond_distance
_geom_bond_site_symmetry_2
_ccdc_geom_bond_type
Er1     V15    10.0   .     S
Er1     V4    10.0   .     S
Er1     V3    10.0   .     S
Er1     Ti17    10.0   .     S
Er2     V16    10.0   .     S
Er2     V3    10.0   1_556     S
Er2     V4    10.0   .     S
Er2     Ti18    10.0   .     S
V3     Er2    10.0   1_554     S
V3     V7    10.0   .     S
V3     Er13    10.0   .     S
V4     V8    10.0   .     S
V4     Er14    10.0   .     S
Er5     V11    10.0   .     S
Er5     V7    10.0   .     S
Er5     V8    10.0   .     S
Er5     Ti19    10.0   .     S
Er6     V12    10.0   .     S
Er6     V8    10.0   .     S
Er6     V7    10.0   1_556     S
Er6     Ti20    10.0   .     S
V7     Er6    10.0   1_554     S
V7     Er9    10.0   .     S
V8     Er10    10.0   .     S
Er9     V11    10.0   .     S
Er9     V12    10.0   1_554     S
Er9     Ti31    10.0   .     S
Er10     V12    10.0   .     S
Er10     V11    10.0   .     S
Er10     Ti32    10.0   .     S
V11     V15    10.0   1_455     S
V12     Er9    10.0   1_556     S
V12     V16    10.0   1_455     S
Er13     V15    10.0   .     S
Er13     V16    10.0   1_554     S
Er13     Ti29    10.0   .     S
Er14     V16    10.0   .     S
Er14     V15    10.0   .     S
Er14     Ti30    10.0   .     S
V15     V11    10.0   1_655     S
V16     Er13    10.0   1_556     S
V16     V12    10.0   1_655     S
Ti17     Ti19    9.999   .     S
Ti17     Ti21    10.0   .     S
Ti17     Ti22    10.0   .     S
Ti18     Ti20    9.999   .     S
Ti18     Ti22    10.0   .     S
Ti18     Ti21    10.0   1_556     S
Ti19     Ti24    10.0   .     S
Ti19     Ti23    10.0   .     S
Ti20     Ti23    10.0   1_556     S
Ti20     Ti24    10.0   .     S
Ti21     Ti23    9.999   .     S
Ti21     Ti18    10.0   1_554     S
Ti21     Er33    10.0   .     S
Ti22     Ti24    9.999   .     S
Ti22     Er34    10.0   .     S
Ti23     Ti20    10.0   1_554     S
Ti23     Er37    10.0   .     S
Ti24     Er38    10.0   .     S
Ti25     Ti27    9.999   1_655     S
Ti25     Ti30    10.0   1_545     S
Ti25     Ti29    10.0   1_545     S
Ti25     Er45    10.0   .     S
Ti26     Ti28    9.999   1_655     S
Ti26     Ti29    10.0   1_546     S
Ti26     Ti30    10.0   1_545     S
Ti26     Er46    10.0   .     S
Ti27     Ti25    9.999   1_455     S
Ti27     Ti31    10.0   1_545     S
Ti27     Ti32    10.0   1_545     S
Ti27     Er41    10.0   .     S
Ti28     Ti26    9.999   1_455     S
Ti28     Ti32    10.0   1_545     S
Ti28     Ti31    10.0   1_546     S
Ti28     Er42    10.0   .     S
Ti29     Ti31    9.999   1_655     S
Ti29     Ti26    10.0   1_564     S
Ti29     Ti25    10.0   1_565     S
Ti30     Ti32    9.999   1_655     S
Ti30     Ti25    10.0   1_565     S
Ti30     Ti26    10.0   1_565     S
Ti31     Ti29    9.999   1_455     S
Ti31     Ti27    10.0   1_565     S
Ti31     Ti28    10.0   1_564     S
Ti32     Ti30    9.999   1_455     S
Ti32     Ti28    10.0   1_565     S
Ti32     Ti27    10.0   1_565     S
Er33     V47    10.0   .     S
Er33     V35    10.0   .     S
Er33     V36    10.0   1_554     S
Er34     V48    10.0   .     S
Er34     V36    10.0   .     S
Er34     V35    10.0   .     S
V35     V39    10.0   .     S
V35     Er45    10.0   .     S
V36     Er33    10.0   1_556     S
V36     V40    10.0   .     S
V36     Er46    10.0   .     S
Er37     V43    10.0   .     S
Er37     V39    10.0   .     S
Er37     V40    10.0   1_554     S
Er38     V44    10.0   .     S
Er38     V40    10.0   .     S
Er38     V39    10.0   .     S
V39     Er41    10.0   .     S
V40     Er37    10.0   1_556     S
V40     Er42    10.0   .     S
Er41     V44    10.0   .     S
Er41     V43    10.0   .     S
Er42     V43    10.0   1_556     S
Er42     V44    10.0   .     S
V43     Er42    10.0   1_554     S
V43     V47    10.0   1_455     S
V44     V48    10.0   1_455     S
Er45     V47    10.0   .     S
Er45     V48    10.0   .     S
Er46     V48    10.0   .     S
Er46     V47    10.0   1_556     S
V47     Er46    10.0   1_554     S
V47     V43    10.0   1_655     S
V48     V44    10.0   1_655     S
