data_rgd
_audit_creation_date              2019-12-31
_audit_creation_method            'Pymatgen'
_symmetry_space_group_name_H-M    'P1'
_symmetry_Int_Tables_number       1
loop_
_symmetry_equiv_pos_as_xyz
  x,y,z
_cell_length_a                    27.5354
_cell_length_b                    27.5354
_cell_length_c                    28.7592
_cell_angle_alpha                 90.0
_cell_angle_beta                 90.0
_cell_angle_gamma                 120.0
loop_
_atom_site_label
_atom_site_type_symbol
_atom_site_fract_x
_atom_site_fract_y
_atom_site_fract_z
V1     V     0.211   0.422   0.0
V2     V     0.211   0.422   0.3333
V3     V     0.211   0.422   0.6667
V4     V     0.578   0.789   0.0
V5     V     0.578   0.789   0.3333
V6     V     0.578   0.789   0.6667
V7     V     0.5443   0.0887   0.2222
V8     V     0.5443   0.0887   0.5556
V9     V     0.5443   0.0887   0.8889
V10     V     0.5443   0.4557   0.2222
V11     V     0.5443   0.4557   0.5556
V12     V     0.5443   0.4557   0.8889
V13     V     0.9113   0.4557   0.2222
V14     V     0.9113   0.4557   0.5556
V15     V     0.9113   0.4557   0.8889
V16     V     0.8777   0.7554   0.1111
V17     V     0.8777   0.7554   0.4444
V18     V     0.8777   0.7554   0.7778
V19     V     0.2446   0.1223   0.1111
V20     V     0.2446   0.1223   0.4444
V21     V     0.2446   0.1223   0.7778
V22     V     0.8777   0.1223   0.1111
V23     V     0.8777   0.1223   0.4444
V24     V     0.8777   0.1223   0.7778
V25     V     0.211   0.789   0.0
V26     V     0.211   0.789   0.3333
V27     V     0.211   0.789   0.6667
loop_
_geom_bond_atom_site_label_1
_geom_bond_atom_site_label_2
_geom_bond_distance
_geom_bond_site_symmetry_2
_ccdc_geom_bond_type
V1     V2    9.586   .     S
V1     V3    9.586   1_554     S
V1     V10    10.837   .     S
V1     V13    10.837   1_455     S
V1     V21    10.837   1_554     S
V1     V24    10.837   1_454     S
V1     V12    9.317   1_554     S
V1     V15    9.317   1_454     S
V1     V19    9.317   .     S
V1     V22    9.317   1_455     S
V1     V4    10.105   .     S
V1     V25    10.105   .     S
V2     V3    9.586   .     S
V2     V11    10.837   .     S
V2     V14    10.837   1_455     S
V2     V19    10.837   .     S
V2     V22    10.837   1_455     S
V2     V10    9.317   .     S
V2     V13    9.317   1_455     S
V2     V20    9.317   .     S
V2     V23    9.317   1_455     S
V2     V5    10.105   .     S
V2     V26    10.105   .     S
V3     V1    9.586   1_556     S
V3     V12    10.837   .     S
V3     V15    10.837   1_455     S
V3     V20    10.837   .     S
V3     V23    10.837   1_455     S
V3     V11    9.317   .     S
V3     V14    9.317   1_455     S
V3     V21    9.317   .     S
V3     V24    9.317   1_455     S
V3     V6    10.105   .     S
V3     V27    10.105   .     S
V4     V5    9.586   .     S
V4     V6    9.586   1_554     S
V4     V10    10.837   .     S
V4     V7    10.837   1_565     S
V4     V18    10.837   1_554     S
V4     V24    10.837   1_564     S
V4     V12    9.317   1_554     S
V4     V9    9.317   1_564     S
V4     V16    9.317   .     S
V4     V22    9.317   1_565     S
V4     V25    10.105   .     S
V5     V6    9.586   .     S
V5     V11    10.837   .     S
V5     V8    10.837   1_565     S
V5     V16    10.837   .     S
V5     V22    10.837   1_565     S
V5     V10    9.317   .     S
V5     V7    9.317   1_565     S
V5     V17    9.317   .     S
V5     V23    9.317   1_565     S
V5     V26    10.105   .     S
V6     V4    9.586   1_556     S
V6     V12    10.837   .     S
V6     V9    10.837   1_565     S
V6     V17    10.837   .     S
V6     V23    10.837   1_565     S
V6     V11    9.317   .     S
V6     V8    9.317   1_565     S
V6     V18    9.317   .     S
V6     V24    9.317   1_565     S
V6     V27    10.105   .     S
V7     V9    9.586   1_554     S
V7     V8    9.586   .     S
V7     V4    10.837   1_545     S
V7     V25    10.837   1_545     S
V7     V20    10.837   .     S
V7     V23    10.837   .     S
V7     V5    9.317   1_545     S
V7     V19    9.317   .     S
V7     V22    9.317   .     S
V7     V26    9.317   1_545     S
V7     V10    10.105   .     S
V7     V13    10.105   .     S
V8     V9    9.586   .     S
V8     V5    10.837   1_545     S
V8     V26    10.837   1_545     S
V8     V21    10.837   .     S
V8     V24    10.837   .     S
V8     V6    9.317   1_545     S
V8     V20    9.317   .     S
V8     V23    9.317   .     S
V8     V27    9.317   1_545     S
V8     V11    10.105   .     S
V8     V14    10.105   .     S
V9     V7    9.586   1_556     S
V9     V6    10.837   1_545     S
V9     V27    10.837   1_545     S
V9     V19    10.837   1_556     S
V9     V22    10.837   1_556     S
V9     V4    9.317   1_546     S
V9     V21    9.317   .     S
V9     V24    9.317   .     S
V9     V25    9.317   1_546     S
V9     V12    10.105   .     S
V9     V15    10.105   .     S
V10     V12    9.586   1_554     S
V10     V11    9.586   .     S
V10     V20    10.837   .     S
V10     V17    10.837   .     S
V10     V16    9.317   .     S
V10     V19    9.317   .     S
V10     V13    10.105   .     S
V11     V12    9.586   .     S
V11     V21    10.837   .     S
V11     V18    10.837   .     S
V11     V17    9.317   .     S
V11     V20    9.317   .     S
V11     V14    10.105   .     S
V12     V10    9.586   1_556     S
V12     V19    10.837   1_556     S
V12     V16    10.837   1_556     S
V12     V1    9.317   1_556     S
V12     V4    9.317   1_556     S
V12     V18    9.317   .     S
V12     V21    9.317   .     S
V12     V15    10.105   .     S
V13     V15    9.586   1_554     S
V13     V14    9.586   .     S
V13     V1    10.837   1_655     S
V13     V25    10.837   1_655     S
V13     V17    10.837   .     S
V13     V23    10.837   .     S
V13     V2    9.317   1_655     S
V13     V16    9.317   .     S
V13     V22    9.317   .     S
V13     V26    9.317   1_655     S
V14     V15    9.586   .     S
V14     V2    10.837   1_655     S
V14     V26    10.837   1_655     S
V14     V18    10.837   .     S
V14     V24    10.837   .     S
V14     V3    9.317   1_655     S
V14     V17    9.317   .     S
V14     V23    9.317   .     S
V14     V27    9.317   1_655     S
V15     V13    9.586   1_556     S
V15     V3    10.837   1_655     S
V15     V27    10.837   1_655     S
V15     V16    10.837   1_556     S
V15     V22    10.837   1_556     S
V15     V1    9.317   1_656     S
V15     V18    9.317   .     S
V15     V24    9.317   .     S
V15     V25    9.317   1_656     S
V16     V17    9.586   .     S
V16     V18    9.586   1_554     S
V16     V12    10.837   1_554     S
V16     V26    10.837   1_655     S
V16     V15    10.837   1_554     S
V16     V25    9.317   1_655     S
V16     V19    10.105   1_665     S
V16     V22    10.105   1_565     S
V17     V18    9.586   .     S
V17     V27    10.837   1_655     S
V17     V26    9.317   1_655     S
V17     V20    10.105   1_665     S
V17     V23    10.105   1_565     S
V18     V16    9.586   1_556     S
V18     V25    10.837   1_656     S
V18     V4    10.837   1_556     S
V18     V27    9.317   1_655     S
V18     V21    10.105   1_665     S
V18     V24    10.105   1_565     S
V19     V20    9.586   .     S
V19     V21    9.586   1_554     S
V19     V12    10.837   1_554     S
V19     V26    10.837   1_545     S
V19     V9    10.837   1_554     S
V19     V25    9.317   1_545     S
V19     V16    10.105   1_445     S
V19     V22    10.105   1_455     S
V20     V21    9.586   .     S
V20     V27    10.837   1_545     S
V20     V26    9.317   1_545     S
V20     V17    10.105   1_445     S
V20     V23    10.105   1_455     S
V21     V19    9.586   1_556     S
V21     V25    10.837   1_546     S
V21     V1    10.837   1_556     S
V21     V27    9.317   1_545     S
V21     V18    10.105   1_445     S
V21     V24    10.105   1_455     S
V22     V23    9.586   .     S
V22     V24    9.586   1_554     S
V22     V2    10.837   1_655     S
V22     V5    10.837   1_545     S
V22     V9    10.837   1_554     S
V22     V15    10.837   1_554     S
V22     V1    9.317   1_655     S
V22     V4    9.317   1_545     S
V22     V16    10.105   1_545     S
V22     V19    10.105   1_655     S
V23     V24    9.586   .     S
V23     V3    10.837   1_655     S
V23     V6    10.837   1_545     S
V23     V2    9.317   1_655     S
V23     V5    9.317   1_545     S
V23     V17    10.105   1_545     S
V23     V20    10.105   1_655     S
V24     V22    9.586   1_556     S
V24     V1    10.837   1_656     S
V24     V4    10.837   1_546     S
V24     V3    9.317   1_655     S
V24     V6    9.317   1_545     S
V24     V18    10.105   1_545     S
V24     V21    10.105   1_655     S
V25     V26    9.586   .     S
V25     V27    9.586   1_554     S
V25     V21    10.837   1_564     S
V25     V18    10.837   1_454     S
V25     V13    10.837   1_455     S
V25     V7    10.837   1_565     S
V25     V16    9.317   1_455     S
V25     V19    9.317   1_565     S
V25     V15    9.317   1_454     S
V25     V9    9.317   1_564     S
V26     V27    9.586   .     S
V26     V19    10.837   1_565     S
V26     V16    10.837   1_455     S
V26     V14    10.837   1_455     S
V26     V8    10.837   1_565     S
V26     V17    9.317   1_455     S
V26     V20    9.317   1_565     S
V26     V13    9.317   1_455     S
V26     V7    9.317   1_565     S
V27     V25    9.586   1_556     S
V27     V20    10.837   1_565     S
V27     V17    10.837   1_455     S
V27     V15    10.837   1_455     S
V27     V9    10.837   1_565     S
V27     V18    9.317   1_455     S
V27     V21    9.317   1_565     S
V27     V14    9.317   1_455     S
V27     V8    9.317   1_565     S
