data_rkf
_audit_creation_date              2019-12-31
_audit_creation_method            'Pymatgen'
_symmetry_space_group_name_H-M    'P1'
_symmetry_Int_Tables_number       1
loop_
_symmetry_equiv_pos_as_xyz
  x,y,z
_cell_length_a                    38.704
_cell_length_b                    38.704
_cell_length_c                    23.7334
_cell_angle_alpha                 90.0
_cell_angle_beta                 90.0
_cell_angle_gamma                 120.0
loop_
_atom_site_label
_atom_site_type_symbol
_atom_site_fract_x
_atom_site_fract_y
_atom_site_fract_z
V1     V     0.382   0.382   0.3333
V2     V     0.382   0.882   0.3333
V3     V     0.882   0.382   0.3333
V4     V     0.882   0.882   0.3333
V5     V     0.382   0.0   0.0
V6     V     0.382   0.5   0.0
V7     V     0.882   0.0   0.0
V8     V     0.882   0.5   0.0
V9     V     0.0   0.118   0.6667
V10     V     0.0   0.618   0.6667
V11     V     0.5   0.118   0.6667
V12     V     0.5   0.618   0.6667
V13     V     0.118   0.118   0.3333
V14     V     0.118   0.618   0.3333
V15     V     0.618   0.118   0.3333
V16     V     0.618   0.618   0.3333
V17     V     0.118   0.0   0.0
V18     V     0.118   0.5   0.0
V19     V     0.618   0.0   0.0
V20     V     0.618   0.5   0.0
V21     V     0.0   0.382   0.6667
V22     V     0.0   0.882   0.6667
V23     V     0.5   0.382   0.6667
V24     V     0.5   0.882   0.6667
loop_
_geom_bond_atom_site_label_1
_geom_bond_atom_site_label_2
_geom_bond_distance
_geom_bond_site_symmetry_2
_ccdc_geom_bond_type
V1     V6    9.135   .     S
V1     V23    9.135   .     S
V1     V16    9.136   .     S
V1     V12    11.189   .     S
V1     V20    11.189   .     S
V1     V13    10.216   .     S
V2     V5    9.135   1_565     S
V2     V24    9.135   .     S
V2     V15    9.136   1_565     S
V2     V11    11.189   1_565     S
V2     V19    11.189   1_565     S
V2     V14    10.216   .     S
V3     V8    9.135   .     S
V3     V21    9.135   1_655     S
V3     V14    9.136   1_655     S
V3     V10    11.189   1_655     S
V3     V18    11.189   1_655     S
V3     V15    10.216   .     S
V4     V7    9.135   1_565     S
V4     V22    9.135   1_655     S
V4     V13    9.136   1_665     S
V4     V9    11.189   1_665     S
V4     V17    11.189   1_665     S
V4     V16    10.216   .     S
V5     V11    9.135   1_554     S
V5     V2    9.135   1_545     S
V5     V19    9.136   .     S
V5     V15    11.189   .     S
V5     V24    11.189   1_544     S
V5     V17    10.216   .     S
V6     V12    9.135   1_554     S
V6     V20    9.136   .     S
V6     V16    11.189   .     S
V6     V23    11.189   1_554     S
V6     V18    10.216   .     S
V7     V9    9.135   1_654     S
V7     V4    9.135   1_545     S
V7     V17    9.136   1_655     S
V7     V13    11.189   1_655     S
V7     V22    11.189   1_644     S
V7     V19    10.216   .     S
V8     V10    9.135   1_654     S
V8     V18    9.136   1_655     S
V8     V14    11.189   1_655     S
V8     V21    11.189   1_654     S
V8     V20    10.216   .     S
V9     V13    9.135   .     S
V9     V7    9.135   1_456     S
V9     V22    9.136   1_545     S
V9     V4    11.189   1_445     S
V9     V17    11.189   1_556     S
V9     V21    10.216   .     S
V10     V14    9.135   .     S
V10     V8    9.135   1_456     S
V10     V21    9.136   .     S
V10     V3    11.189   1_455     S
V10     V18    11.189   1_556     S
V10     V22    10.216   .     S
V11     V15    9.135   .     S
V11     V5    9.135   1_556     S
V11     V24    9.136   1_545     S
V11     V2    11.189   1_545     S
V11     V19    11.189   1_556     S
V11     V23    10.216   .     S
V12     V16    9.135   .     S
V12     V6    9.135   1_556     S
V12     V23    9.136   .     S
V12     V20    11.189   1_556     S
V12     V24    10.216   .     S
V13     V17    9.135   .     S
V13     V4    9.136   1_445     S
V13     V22    11.189   1_545     S
V13     V7    11.189   1_455     S
V14     V18    9.135   .     S
V14     V3    9.136   1_455     S
V14     V21    11.189   .     S
V14     V8    11.189   1_455     S
V15     V19    9.135   .     S
V15     V2    9.136   1_545     S
V15     V24    11.189   1_545     S
V16     V20    9.135   .     S
V16     V23    11.189   .     S
V17     V22    9.135   1_544     S
V17     V7    9.136   1_455     S
V17     V4    11.189   1_445     S
V17     V9    11.189   1_554     S
V18     V21    9.135   1_554     S
V18     V8    9.136   1_455     S
V18     V3    11.189   1_455     S
V18     V10    11.189   1_554     S
V19     V24    9.135   1_544     S
V19     V2    11.189   1_545     S
V19     V11    11.189   1_554     S
V20     V23    9.135   1_554     S
V20     V12    11.189   1_554     S
V21     V3    9.135   1_455     S
V21     V18    9.135   1_556     S
V21     V8    11.189   1_456     S
V22     V4    9.135   1_455     S
V22     V17    9.135   1_566     S
V22     V9    9.136   1_565     S
V22     V13    11.189   1_565     S
V22     V7    11.189   1_466     S
V23     V20    9.135   1_556     S
V23     V6    11.189   1_556     S
V24     V19    9.135   1_566     S
V24     V11    9.136   1_565     S
V24     V15    11.189   1_565     S
V24     V5    11.189   1_566     S
