data_rob
_audit_creation_date              2019-12-31
_audit_creation_method            'Pymatgen'
_symmetry_space_group_name_H-M    'P1'
_symmetry_Int_Tables_number       1
loop_
_symmetry_equiv_pos_as_xyz
  x,y,z
_cell_length_a                    23.0772
_cell_length_b                    32.6718
_cell_length_c                    32.6718
_cell_angle_alpha                 90.0
_cell_angle_beta                 90.0
_cell_angle_gamma                 90.0
loop_
_atom_site_label
_atom_site_type_symbol
_atom_site_fract_x
_atom_site_fract_y
_atom_site_fract_z
V1     V     0.125   0.125   0.0
V2     V     0.125   0.125   0.5
V3     V     0.125   0.625   0.0
V4     V     0.125   0.625   0.5
V5     V     0.625   0.125   0.0
V6     V     0.625   0.125   0.5
V7     V     0.625   0.625   0.0
V8     V     0.625   0.625   0.5
V9     V     0.375   0.375   0.0
V10     V     0.375   0.375   0.5
V11     V     0.375   0.875   0.0
V12     V     0.375   0.875   0.5
V13     V     0.875   0.375   0.0
V14     V     0.875   0.375   0.5
V15     V     0.875   0.875   0.0
V16     V     0.875   0.875   0.5
V17     V     0.375   0.125   0.25
V18     V     0.375   0.125   0.75
V19     V     0.375   0.625   0.25
V20     V     0.375   0.625   0.75
V21     V     0.875   0.125   0.25
V22     V     0.875   0.125   0.75
V23     V     0.875   0.625   0.25
V24     V     0.875   0.625   0.75
V25     V     0.125   0.375   0.25
V26     V     0.125   0.375   0.75
V27     V     0.125   0.875   0.25
V28     V     0.125   0.875   0.75
V29     V     0.625   0.375   0.25
V30     V     0.625   0.375   0.75
V31     V     0.625   0.875   0.25
V32     V     0.625   0.875   0.75
loop_
_geom_bond_atom_site_label_1
_geom_bond_atom_site_label_2
_geom_bond_distance
_geom_bond_site_symmetry_2
_ccdc_geom_bond_type
V1     V9    10.0   .     S
V1     V15    10.0   1_445     S
V1     V17    10.0   .     S
V1     V18    10.0   1_554     S
V1     V21    10.0   1_455     S
V1     V22    10.0   1_454     S
V2     V10    10.0   .     S
V2     V16    10.0   1_445     S
V2     V18    10.0   .     S
V2     V17    10.0   .     S
V2     V22    10.0   1_455     S
V2     V21    10.0   1_455     S
V3     V11    10.0   .     S
V3     V13    10.0   1_455     S
V3     V19    10.0   .     S
V3     V20    10.0   1_554     S
V3     V23    10.0   1_455     S
V3     V24    10.0   1_454     S
V4     V12    10.0   .     S
V4     V14    10.0   1_455     S
V4     V20    10.0   .     S
V4     V19    10.0   .     S
V4     V24    10.0   1_455     S
V4     V23    10.0   1_455     S
V5     V13    10.0   .     S
V5     V11    10.0   1_545     S
V5     V21    10.0   .     S
V5     V22    10.0   1_554     S
V5     V17    10.0   .     S
V5     V18    10.0   1_554     S
V6     V14    10.0   .     S
V6     V12    10.0   1_545     S
V6     V22    10.0   .     S
V6     V21    10.0   .     S
V6     V18    10.0   .     S
V6     V17    10.0   .     S
V7     V15    10.0   .     S
V7     V9    10.0   .     S
V7     V23    10.0   .     S
V7     V24    10.0   1_554     S
V7     V19    10.0   .     S
V7     V20    10.0   1_554     S
V8     V16    10.0   .     S
V8     V10    10.0   .     S
V8     V24    10.0   .     S
V8     V23    10.0   .     S
V8     V20    10.0   .     S
V8     V19    10.0   .     S
V9     V25    10.0   .     S
V9     V26    10.0   1_554     S
V9     V29    10.0   .     S
V9     V30    10.0   1_554     S
V10     V26    10.0   .     S
V10     V25    10.0   .     S
V10     V30    10.0   .     S
V10     V29    10.0   .     S
V11     V5    10.0   1_565     S
V11     V27    10.0   .     S
V11     V28    10.0   1_554     S
V11     V31    10.0   .     S
V11     V32    10.0   1_554     S
V12     V6    10.0   1_565     S
V12     V28    10.0   .     S
V12     V27    10.0   .     S
V12     V32    10.0   .     S
V12     V31    10.0   .     S
V13     V3    10.0   1_655     S
V13     V29    10.0   .     S
V13     V30    10.0   1_554     S
V13     V25    10.0   1_655     S
V13     V26    10.0   1_654     S
V14     V4    10.0   1_655     S
V14     V30    10.0   .     S
V14     V29    10.0   .     S
V14     V26    10.0   1_655     S
V14     V25    10.0   1_655     S
V15     V1    10.0   1_665     S
V15     V31    10.0   .     S
V15     V32    10.0   1_554     S
V15     V27    10.0   1_655     S
V15     V28    10.0   1_654     S
V16     V2    10.0   1_665     S
V16     V32    10.0   .     S
V16     V31    10.0   .     S
V16     V28    10.0   1_655     S
V16     V27    10.0   1_655     S
V17     V25    10.0   .     S
V17     V31    10.0   1_545     S
V18     V26    10.0   .     S
V18     V32    10.0   1_545     S
V18     V1    10.0   1_556     S
V18     V5    10.0   1_556     S
V19     V27    10.0   .     S
V19     V29    10.0   .     S
V20     V28    10.0   .     S
V20     V30    10.0   .     S
V20     V3    10.0   1_556     S
V20     V7    10.0   1_556     S
V21     V29    10.0   .     S
V21     V27    10.0   1_645     S
V21     V1    10.0   1_655     S
V21     V2    10.0   1_655     S
V22     V30    10.0   .     S
V22     V28    10.0   1_645     S
V22     V5    10.0   1_556     S
V22     V2    10.0   1_655     S
V22     V1    10.0   1_656     S
V23     V31    10.0   .     S
V23     V25    10.0   1_655     S
V23     V3    10.0   1_655     S
V23     V4    10.0   1_655     S
V24     V32    10.0   .     S
V24     V26    10.0   1_655     S
V24     V7    10.0   1_556     S
V24     V4    10.0   1_655     S
V24     V3    10.0   1_656     S
V25     V23    10.0   1_455     S
V25     V13    10.0   1_455     S
V25     V14    10.0   1_455     S
V26     V24    10.0   1_455     S
V26     V9    10.0   1_556     S
V26     V14    10.0   1_455     S
V26     V13    10.0   1_456     S
V27     V21    10.0   1_465     S
V27     V15    10.0   1_455     S
V27     V16    10.0   1_455     S
V28     V22    10.0   1_465     S
V28     V11    10.0   1_556     S
V28     V16    10.0   1_455     S
V28     V15    10.0   1_456     S
V30     V13    10.0   1_556     S
V30     V9    10.0   1_556     S
V31     V17    10.0   1_565     S
V32     V18    10.0   1_565     S
V32     V15    10.0   1_556     S
V32     V11    10.0   1_556     S
