data_rtl
_audit_creation_date              2019-12-31
_audit_creation_method            'Pymatgen'
_symmetry_space_group_name_H-M    'P1'
_symmetry_Int_Tables_number       1
loop_
_symmetry_equiv_pos_as_xyz
  x,y,z
_cell_length_a                    23.5771
_cell_length_b                    23.5771
_cell_length_c                    29.7968
_cell_angle_alpha                 90.0
_cell_angle_beta                 90.0
_cell_angle_gamma                 90.0
loop_
_atom_site_label
_atom_site_type_symbol
_atom_site_fract_x
_atom_site_fract_y
_atom_site_fract_z
V1     V     0.7999   0.2001   0.0
V2     V     0.7999   0.2001   0.5
V3     V     0.2001   0.7999   0.0
V4     V     0.2001   0.7999   0.5
Er5     Er     0.5   0.5   0.0
Er6     Er     0.5   0.5   0.5
V7     V     0.2999   0.2999   0.25
V8     V     0.2999   0.2999   0.75
V9     V     0.7001   0.7001   0.25
V10     V     0.7001   0.7001   0.75
Er11     Er     0.0   0.0   0.25
Er12     Er     0.0   0.0   0.75
loop_
_geom_bond_atom_site_label_1
_geom_bond_atom_site_label_2
_geom_bond_distance
_geom_bond_site_symmetry_2
_ccdc_geom_bond_type
V1     Er5    10.0   .     S
V1     Er12    10.0   1_654     S
V1     Er11    10.0   1_655     S
V2     Er6    10.0   .     S
V2     Er11    10.0   1_655     S
V2     Er12    10.0   1_655     S
V3     Er5    10.0   .     S
V3     Er12    10.0   1_564     S
V3     Er11    10.0   1_565     S
V4     Er6    10.0   .     S
V4     Er11    10.0   1_565     S
V4     Er12    10.0   1_565     S
Er5     V10    10.0   1_554     S
Er5     V8    10.0   1_554     S
Er5     V9    10.0   .     S
Er5     V7    10.0   .     S
Er6     V9    10.0   .     S
Er6     V7    10.0   .     S
Er6     V10    10.0   .     S
Er6     V8    10.0   .     S
V7     Er11    10.0   .     S
V8     Er5    10.0   1_556     S
V8     Er12    10.0   .     S
V9     Er11    10.0   1_665     S
V10     Er5    10.0   1_556     S
V10     Er12    10.0   1_665     S
Er11     V9    10.0   1_445     S
Er11     V2    10.0   1_455     S
Er11     V4    10.0   1_545     S
Er11     V3    10.0   1_545     S
Er11     V1    10.0   1_455     S
Er12     V10    10.0   1_445     S
Er12     V1    10.0   1_456     S
Er12     V3    10.0   1_546     S
Er12     V4    10.0   1_545     S
Er12     V2    10.0   1_455     S
