data_scg
_audit_creation_date              2019-12-31
_audit_creation_method            'Pymatgen'
_symmetry_space_group_name_H-M    'P1'
_symmetry_Int_Tables_number       1
loop_
_symmetry_equiv_pos_as_xyz
  x,y,z
_cell_length_a                    33.2766
_cell_length_b                    31.098
_cell_length_c                    34.6412
_cell_angle_alpha                 90.0
_cell_angle_beta                 107.9936
_cell_angle_gamma                 90.0
loop_
_atom_site_label
_atom_site_type_symbol
_atom_site_fract_x
_atom_site_fract_y
_atom_site_fract_z
V1     V     0.0   0.7588   0.375
V2     V     0.0   0.7588   0.875
V3     V     0.5   0.7588   0.375
V4     V     0.5   0.7588   0.875
Er5     Er     0.0   0.0804   0.375
Er6     Er     0.0   0.0804   0.875
Er7     Er     0.5   0.0804   0.375
Er8     Er     0.5   0.0804   0.875
V9     V     0.25   0.7412   0.125
V10     V     0.25   0.7412   0.625
V11     V     0.75   0.7412   0.125
V12     V     0.75   0.7412   0.625
Er13     Er     0.25   0.4196   0.125
Er14     Er     0.25   0.4196   0.625
Er15     Er     0.75   0.4196   0.125
Er16     Er     0.75   0.4196   0.625
V17     V     0.25   0.2588   0.375
V18     V     0.25   0.2588   0.875
V19     V     0.75   0.2588   0.375
V20     V     0.75   0.2588   0.875
Er21     Er     0.25   0.5804   0.375
Er22     Er     0.25   0.5804   0.875
Er23     Er     0.75   0.5804   0.375
Er24     Er     0.75   0.5804   0.875
V25     V     0.0   0.2412   0.125
V26     V     1.0   0.2412   0.625
V27     V     0.5   0.2412   0.125
V28     V     0.5   0.2412   0.625
Er29     Er     0.0   0.9196   0.125
Er30     Er     1.0   0.9196   0.625
Er31     Er     0.5   0.9196   0.125
Er32     Er     0.5   0.9196   0.625
loop_
_geom_bond_atom_site_label_1
_geom_bond_atom_site_label_2
_geom_bond_distance
_geom_bond_site_symmetry_2
_ccdc_geom_bond_type
V1     Er23    10.0   1_455     S
V1     Er29    10.0   .     S
V1     Er30    10.0   1_455     S
V1     Er5    10.0   1_565     S
V1     V11    10.0   1_455     S
V1     V10    10.0   .     S
V1     Er21    10.0   .     S
V2     Er24    10.0   1_455     S
V2     Er30    10.0   1_455     S
V2     Er29    10.0   1_556     S
V2     Er6    10.0   1_565     S
V2     V12    10.0   1_455     S
V2     V9    10.0   1_556     S
V2     Er22    10.0   .     S
V3     Er21    10.0   .     S
V3     Er31    10.0   .     S
V3     Er32    10.0   .     S
V3     Er7    10.0   1_565     S
V3     V9    10.0   .     S
V3     V12    10.0   .     S
V3     Er23    10.0   .     S
V4     Er22    10.0   .     S
V4     Er32    10.0   .     S
V4     Er31    10.0   1_556     S
V4     Er8    10.0   1_565     S
V4     V10    10.0   .     S
V4     V11    10.0   1_556     S
V4     Er24    10.0   .     S
Er5     V25    10.0   .     S
Er5     Er29    10.0   1_545     S
Er5     V17    10.0   .     S
Er5     V26    10.0   1_455     S
Er5     Er30    10.0   1_445     S
Er5     V19    10.0   1_455     S
Er5     V1    10.0   1_545     S
Er6     V26    10.0   1_455     S
Er6     Er30    10.0   1_445     S
Er6     V18    10.0   .     S
Er6     V25    10.0   1_556     S
Er6     Er29    10.0   1_546     S
Er6     V20    10.0   1_455     S
Er6     V2    10.0   1_545     S
Er7     V27    10.0   .     S
Er7     Er31    10.0   1_545     S
Er7     V19    10.0   .     S
Er7     V28    10.0   .     S
Er7     Er32    10.0   1_545     S
Er7     V17    10.0   .     S
Er7     V3    10.0   1_545     S
Er8     V28    10.0   .     S
Er8     Er32    10.0   1_545     S
Er8     V20    10.0   .     S
Er8     V27    10.0   1_556     S
Er8     Er31    10.0   1_546     S
Er8     V18    10.0   .     S
Er8     V4    10.0   1_545     S
V9     Er21    10.0   .     S
V9     Er31    10.0   .     S
V9     Er29    10.0   .     S
V9     Er13    10.0   .     S
V9     V2    10.0   1_554     S
V9     Er22    10.0   1_554     S
V10     Er22    10.0   .     S
V10     Er32    10.0   .     S
V10     Er30    10.0   1_455     S
V10     Er14    10.0   .     S
V10     Er21    10.0   .     S
V11     Er23    10.0   .     S
V11     Er29    10.0   1_655     S
V11     Er31    10.0   .     S
V11     Er15    10.0   .     S
V11     V1    10.0   1_655     S
V11     V4    10.0   1_554     S
V11     Er24    10.0   1_554     S
V12     Er24    10.0   .     S
V12     Er30    10.0   .     S
V12     Er32    10.0   .     S
V12     Er16    10.0   .     S
V12     V2    10.0   1_655     S
V12     Er23    10.0   .     S
Er13     V17    10.0   .     S
Er13     Er21    10.0   .     S
Er13     V25    10.0   .     S
Er13     V18    10.0   1_554     S
Er13     Er22    10.0   1_554     S
Er13     V27    10.0   .     S
Er14     V18    10.0   .     S
Er14     Er22    10.0   .     S
Er14     V26    10.0   1_455     S
Er14     V17    10.0   .     S
Er14     Er21    10.0   .     S
Er14     V28    10.0   .     S
Er15     V19    10.0   .     S
Er15     Er23    10.0   .     S
Er15     V27    10.0   .     S
Er15     V20    10.0   1_554     S
Er15     Er24    10.0   1_554     S
Er15     V25    10.0   1_655     S
Er16     V20    10.0   .     S
Er16     Er24    10.0   .     S
Er16     V28    10.0   .     S
Er16     V19    10.0   .     S
Er16     Er23    10.0   .     S
Er16     V26    10.0   .     S
V17     Er21    10.0   .     S
V17     V28    10.0   .     S
V17     V25    10.0   .     S
V18     Er13    10.0   1_556     S
V18     Er22    10.0   .     S
V18     V27    10.0   1_556     S
V18     V26    10.0   1_455     S
V19     Er5    10.0   1_655     S
V19     Er23    10.0   .     S
V19     V26    10.0   .     S
V19     V27    10.0   .     S
V20     Er6    10.0   1_655     S
V20     Er15    10.0   1_556     S
V20     Er24    10.0   .     S
V20     V25    10.0   1_656     S
V20     V28    10.0   .     S
Er22     Er13    10.0   1_556     S
Er22     V9    10.0   1_556     S
Er23     V1    10.0   1_655     S
Er24     V2    10.0   1_655     S
Er24     Er15    10.0   1_556     S
Er24     V11    10.0   1_556     S
V25     Er6    10.0   1_554     S
V25     Er15    10.0   1_455     S
V25     Er29    10.0   1_545     S
V25     V20    10.0   1_454     S
V26     Er14    10.0   1_655     S
V26     Er6    10.0   1_655     S
V26     Er5    10.0   1_655     S
V26     Er30    10.0   1_545     S
V26     V18    10.0   1_655     S
V27     Er8    10.0   1_554     S
V27     Er31    10.0   1_545     S
V27     V18    10.0   1_554     S
V28     Er32    10.0   1_545     S
Er29     Er5    10.0   1_565     S
Er29     V11    10.0   1_455     S
Er29     Er6    10.0   1_564     S
Er29     V2    10.0   1_554     S
Er29     V25    10.0   1_565     S
Er30     Er6    10.0   1_665     S
Er30     V2    10.0   1_655     S
Er30     Er5    10.0   1_665     S
Er30     V1    10.0   1_655     S
Er30     V10    10.0   1_655     S
Er30     V26    10.0   1_565     S
Er31     Er7    10.0   1_565     S
Er31     Er8    10.0   1_564     S
Er31     V4    10.0   1_554     S
Er31     V27    10.0   1_565     S
Er32     Er8    10.0   1_565     S
Er32     Er7    10.0   1_565     S
Er32     V28    10.0   1_565     S
