data_scp
_audit_creation_date              2019-12-31
_audit_creation_method            'Pymatgen'
_symmetry_space_group_name_H-M    'P1'
_symmetry_Int_Tables_number       1
loop_
_symmetry_equiv_pos_as_xyz
  x,y,z
_cell_length_a                    27.9064
_cell_length_b                    27.9064
_cell_length_c                    50.9116
_cell_angle_alpha                 90.0
_cell_angle_beta                 90.0
_cell_angle_gamma                 90.0
loop_
_atom_site_label
_atom_site_type_symbol
_atom_site_fract_x
_atom_site_fract_y
_atom_site_fract_z
V1     V     0.0   0.375   0.625
V2     V     0.0   0.875   0.625
V3     V     0.5   0.375   0.625
V4     V     0.5   0.875   0.625
Ti5     Ti     0.25   0.125   0.625
Ti6     Ti     0.25   0.625   0.625
Ti7     Ti     0.75   0.125   0.625
Ti8     Ti     0.75   0.625   0.625
Er9     Er     0.125   0.125   0.75
Er10     Er     0.125   0.625   0.75
Er11     Er     0.625   0.125   0.75
Er12     Er     0.625   0.625   0.75
Er13     Er     0.375   0.125   0.75
Er14     Er     0.375   0.625   0.75
Er15     Er     0.875   0.125   0.75
Er16     Er     0.875   0.625   0.75
V17     V     0.25   0.375   0.875
V18     V     0.25   0.875   0.875
V19     V     0.75   0.375   0.875
V20     V     0.75   0.875   0.875
Ti21     Ti     0.0   0.125   0.875
Ti22     Ti     0.0   0.625   0.875
Ti23     Ti     0.5   0.125   0.875
Ti24     Ti     0.5   0.625   0.875
Ti25     Ti     0.0   0.375   0.125
Ti26     Ti     0.0   0.875   0.125
Ti27     Ti     0.5   0.375   0.125
Ti28     Ti     0.5   0.875   0.125
V29     V     0.25   0.125   0.125
V30     V     0.25   0.625   0.125
V31     V     0.75   0.125   0.125
V32     V     0.75   0.625   0.125
Er33     Er     0.0   0.0   0.0
Er34     Er     0.0   0.5   0.0
Er35     Er     0.5   0.0   0.0
Er36     Er     0.5   0.5   0.0
Er37     Er     0.0   0.25   0.0
Er38     Er     0.0   0.75   0.0
Er39     Er     0.5   0.25   0.0
Er40     Er     0.5   0.75   0.0
V41     V     0.0   0.125   0.375
V42     V     0.0   0.625   0.375
V43     V     0.5   0.125   0.375
V44     V     0.5   0.625   0.375
Ti45     Ti     0.25   0.375   0.375
Ti46     Ti     0.25   0.875   0.375
Ti47     Ti     0.75   0.375   0.375
Ti48     Ti     0.75   0.875   0.375
Er49     Er     0.125   0.375   0.25
Er50     Er     0.125   0.875   0.25
Er51     Er     0.625   0.375   0.25
Er52     Er     0.625   0.875   0.25
Er53     Er     0.375   0.375   0.25
Er54     Er     0.375   0.875   0.25
Er55     Er     0.875   0.375   0.25
Er56     Er     0.875   0.875   0.25
Er57     Er     0.25   0.0   0.5
Er58     Er     0.25   0.5   0.5
Er59     Er     0.75   0.0   0.5
Er60     Er     0.75   0.5   0.5
Er61     Er     0.25   0.25   0.5
Er62     Er     0.25   0.75   0.5
Er63     Er     0.75   0.25   0.5
Er64     Er     0.75   0.75   0.5
loop_
_geom_bond_atom_site_label_1
_geom_bond_atom_site_label_2
_geom_bond_distance
_geom_bond_site_symmetry_2
_ccdc_geom_bond_type
V1     Ti6    9.866   .     S
V1     Ti8    9.866   1_455     S
V1     Ti5    9.866   .     S
V1     Ti7    9.866   1_455     S
V1     Er15    10.067   1_455     S
V1     Er9    10.067   .     S
V1     Er60    10.067   1_455     S
V1     Er63    10.067   1_455     S
V1     Er58    10.067   .     S
V1     Er61    10.067   .     S
V1     Er10    10.067   .     S
V1     Er16    10.067   1_455     S
V2     Ti5    9.866   1_565     S
V2     Ti7    9.866   1_465     S
V2     Ti6    9.866   .     S
V2     Ti8    9.866   1_455     S
V2     Er16    10.067   1_455     S
V2     Er10    10.067   .     S
V2     Er59    10.067   1_465     S
V2     Er64    10.067   1_455     S
V2     Er57    10.067   1_565     S
V2     Er62    10.067   .     S
V2     Er9    10.067   1_565     S
V2     Er15    10.067   1_465     S
V3     Ti8    9.866   .     S
V3     Ti6    9.866   .     S
V3     Ti7    9.866   .     S
V3     Ti5    9.866   .     S
V3     Er13    10.067   .     S
V3     Er11    10.067   .     S
V3     Er58    10.067   .     S
V3     Er61    10.067   .     S
V3     Er60    10.067   .     S
V3     Er63    10.067   .     S
V3     Er12    10.067   .     S
V3     Er14    10.067   .     S
V4     Ti7    9.866   1_565     S
V4     Ti5    9.866   1_565     S
V4     Ti8    9.866   .     S
V4     Ti6    9.866   .     S
V4     Er14    10.067   .     S
V4     Er12    10.067   .     S
V4     Er57    10.067   1_565     S
V4     Er62    10.067   .     S
V4     Er59    10.067   1_565     S
V4     Er64    10.067   .     S
V4     Er11    10.067   1_565     S
V4     Er13    10.067   1_565     S
Ti5     V2    9.866   1_545     S
Ti5     V4    9.866   1_545     S
Ti7     V4    9.866   1_545     S
Ti7     V2    9.866   1_645     S
Ti7     V1    9.866   1_655     S
Ti8     V1    9.866   1_655     S
Ti8     V2    9.866   1_655     S
Er9     V2    10.067   1_545     S
Er9     V17    10.067   .     S
Er9     V18    10.067   1_545     S
Er10     V18    10.067   .     S
Er10     V17    10.067   .     S
Er11     V4    10.067   1_545     S
Er11     V19    10.067   .     S
Er11     V20    10.067   1_545     S
Er12     V20    10.067   .     S
Er12     V19    10.067   .     S
Er13     V4    10.067   1_545     S
Er13     V17    10.067   .     S
Er13     V18    10.067   1_545     S
Er14     V18    10.067   .     S
Er14     V17    10.067   .     S
Er15     V1    10.067   1_655     S
Er15     V2    10.067   1_645     S
Er15     V19    10.067   .     S
Er15     V20    10.067   1_545     S
Er16     V2    10.067   1_655     S
Er16     V1    10.067   1_655     S
Er16     V20    10.067   .     S
Er16     V19    10.067   .     S
V17     Ti24    9.866   .     S
V17     Ti23    9.866   .     S
V17     Ti22    9.866   .     S
V17     Ti21    9.866   .     S
V17     Er36    10.067   1_556     S
V17     Er39    10.067   1_556     S
V17     Er34    10.067   1_556     S
V17     Er37    10.067   1_556     S
V18     Ti23    9.866   1_565     S
V18     Ti24    9.866   .     S
V18     Ti21    9.866   1_565     S
V18     Ti22    9.866   .     S
V18     Er35    10.067   1_566     S
V18     Er40    10.067   1_556     S
V18     Er33    10.067   1_566     S
V18     Er38    10.067   1_556     S
V18     Er9    10.067   1_565     S
V18     Er13    10.067   1_565     S
V19     Ti22    9.866   1_655     S
V19     Ti21    9.866   1_655     S
V19     Ti24    9.866   .     S
V19     Ti23    9.866   .     S
V19     Er34    10.067   1_656     S
V19     Er37    10.067   1_656     S
V19     Er36    10.067   1_556     S
V19     Er39    10.067   1_556     S
V20     Ti21    9.866   1_665     S
V20     Ti22    9.866   1_655     S
V20     Ti23    9.866   1_565     S
V20     Ti24    9.866   .     S
V20     Er33    10.067   1_666     S
V20     Er38    10.067   1_656     S
V20     Er35    10.067   1_566     S
V20     Er40    10.067   1_556     S
V20     Er11    10.067   1_565     S
V20     Er15    10.067   1_565     S
Ti21     V20    9.866   1_445     S
Ti21     V19    9.866   1_455     S
Ti21     V18    9.866   1_545     S
Ti22     V19    9.866   1_455     S
Ti22     V20    9.866   1_455     S
Ti23     V18    9.866   1_545     S
Ti23     V20    9.866   1_545     S
Ti25     V31    9.866   1_455     S
Ti25     V29    9.866   .     S
Ti25     V30    9.866   .     S
Ti25     V32    9.866   1_455     S
Ti26     V32    9.866   1_455     S
Ti26     V30    9.866   .     S
Ti26     V29    9.866   1_565     S
Ti26     V31    9.866   1_465     S
Ti27     V29    9.866   .     S
Ti27     V31    9.866   .     S
Ti27     V32    9.866   .     S
Ti27     V30    9.866   .     S
Ti28     V30    9.866   .     S
Ti28     V32    9.866   .     S
Ti28     V31    9.866   1_565     S
Ti28     V29    9.866   1_565     S
V29     Ti26    9.866   1_545     S
V29     Ti28    9.866   1_545     S
V29     Er35    10.067   .     S
V29     Er39    10.067   .     S
V29     Er53    10.067   .     S
V29     Er49    10.067   .     S
V29     Er33    10.067   .     S
V29     Er37    10.067   .     S
V29     Er50    10.067   1_545     S
V29     Er54    10.067   1_545     S
V30     Er36    10.067   .     S
V30     Er40    10.067   .     S
V30     Er54    10.067   .     S
V30     Er50    10.067   .     S
V30     Er34    10.067   .     S
V30     Er38    10.067   .     S
V30     Er49    10.067   .     S
V30     Er53    10.067   .     S
V31     Ti25    9.866   1_655     S
V31     Ti28    9.866   1_545     S
V31     Ti26    9.866   1_645     S
V31     Er33    10.067   1_655     S
V31     Er37    10.067   1_655     S
V31     Er55    10.067   .     S
V31     Er51    10.067   .     S
V31     Er35    10.067   .     S
V31     Er39    10.067   .     S
V31     Er52    10.067   1_545     S
V31     Er56    10.067   1_545     S
V32     Ti26    9.866   1_655     S
V32     Ti25    9.866   1_655     S
V32     Er34    10.067   1_655     S
V32     Er38    10.067   1_655     S
V32     Er56    10.067   .     S
V32     Er52    10.067   .     S
V32     Er36    10.067   .     S
V32     Er40    10.067   .     S
V32     Er51    10.067   .     S
V32     Er55    10.067   .     S
Er33     V20    10.067   1_444     S
Er33     V18    10.067   1_544     S
Er33     V31    10.067   1_455     S
Er34     V19    10.067   1_454     S
Er34     V17    10.067   1_554     S
Er34     V32    10.067   1_455     S
Er35     V18    10.067   1_544     S
Er35     V20    10.067   1_544     S
Er36     V17    10.067   1_554     S
Er36     V19    10.067   1_554     S
Er37     V19    10.067   1_454     S
Er37     V17    10.067   1_554     S
Er37     V31    10.067   1_455     S
Er38     V20    10.067   1_454     S
Er38     V18    10.067   1_554     S
Er38     V32    10.067   1_455     S
Er39     V17    10.067   1_554     S
Er39     V19    10.067   1_554     S
Er40     V18    10.067   1_554     S
Er40     V20    10.067   1_554     S
V41     Ti45    9.866   .     S
V41     Ti47    9.866   1_455     S
V41     Ti48    9.866   1_445     S
V41     Ti46    9.866   1_545     S
V41     Er59    10.067   1_455     S
V41     Er63    10.067   1_455     S
V41     Er55    10.067   1_455     S
V41     Er49    10.067   .     S
V41     Er57    10.067   .     S
V41     Er61    10.067   .     S
V41     Er50    10.067   1_545     S
V41     Er56    10.067   1_445     S
V42     Ti46    9.866   .     S
V42     Ti48    9.866   1_455     S
V42     Ti47    9.866   1_455     S
V42     Ti45    9.866   .     S
V42     Er60    10.067   1_455     S
V42     Er64    10.067   1_455     S
V42     Er56    10.067   1_455     S
V42     Er50    10.067   .     S
V42     Er58    10.067   .     S
V42     Er62    10.067   .     S
V42     Er49    10.067   .     S
V42     Er55    10.067   1_455     S
V43     Ti47    9.866   .     S
V43     Ti45    9.866   .     S
V43     Ti46    9.866   1_545     S
V43     Ti48    9.866   1_545     S
V43     Er57    10.067   .     S
V43     Er61    10.067   .     S
V43     Er53    10.067   .     S
V43     Er51    10.067   .     S
V43     Er59    10.067   .     S
V43     Er63    10.067   .     S
V43     Er52    10.067   1_545     S
V43     Er54    10.067   1_545     S
V44     Ti48    9.866   .     S
V44     Ti46    9.866   .     S
V44     Ti45    9.866   .     S
V44     Ti47    9.866   .     S
V44     Er58    10.067   .     S
V44     Er62    10.067   .     S
V44     Er54    10.067   .     S
V44     Er52    10.067   .     S
V44     Er60    10.067   .     S
V44     Er64    10.067   .     S
V44     Er51    10.067   .     S
V44     Er53    10.067   .     S
Ti46     V43    9.866   1_565     S
Ti46     V41    9.866   1_565     S
Ti47     V41    9.866   1_655     S
Ti47     V42    9.866   1_655     S
Ti48     V42    9.866   1_655     S
Ti48     V41    9.866   1_665     S
Ti48     V43    9.866   1_565     S
Er50     V29    10.067   1_565     S
Er50     V41    10.067   1_565     S
Er52     V31    10.067   1_565     S
Er52     V43    10.067   1_565     S
Er54     V29    10.067   1_565     S
Er54     V43    10.067   1_565     S
Er55     V41    10.067   1_655     S
Er55     V42    10.067   1_655     S
Er56     V31    10.067   1_565     S
Er56     V42    10.067   1_655     S
Er56     V41    10.067   1_665     S
Er57     V4    10.067   1_545     S
Er57     V2    10.067   1_545     S
Er59     V2    10.067   1_645     S
Er59     V4    10.067   1_545     S
Er59     V41    10.067   1_655     S
Er60     V1    10.067   1_655     S
Er60     V42    10.067   1_655     S
Er63     V1    10.067   1_655     S
Er63     V41    10.067   1_655     S
Er64     V2    10.067   1_655     S
Er64     V42    10.067   1_655     S
