data_sct
_audit_creation_date              2019-12-31
_audit_creation_method            'Pymatgen'
_symmetry_space_group_name_H-M    'P1'
_symmetry_Int_Tables_number       1
loop_
_symmetry_equiv_pos_as_xyz
  x,y,z
_cell_length_a                    70.5507
_cell_length_b                    32.6596
_cell_length_c                    43.0944
_cell_angle_alpha                 90.0
_cell_angle_beta                 90.0
_cell_angle_gamma                 90.0
loop_
_atom_site_label
_atom_site_type_symbol
_atom_site_fract_x
_atom_site_fract_y
_atom_site_fract_z
V1     V     0.9459   0.1875   0.558
V2     V     0.9459   0.6875   0.558
V3     V     0.9459   0.4375   0.692
V4     V     0.9459   0.9375   0.692
V5     V     0.8041   0.4375   0.692
V6     V     0.8041   0.9375   0.692
V7     V     0.8041   0.1875   0.558
V8     V     0.8041   0.6875   0.558
V9     V     0.8041   0.1875   0.192
V10     V     0.8041   0.6875   0.192
V11     V     0.8041   0.4375   0.058
V12     V     0.8041   0.9375   0.058
V13     V     0.9459   0.4375   0.058
V14     V     0.9459   0.9375   0.058
V15     V     0.9459   0.1875   0.192
V16     V     0.9459   0.6875   0.192
V17     V     0.5541   0.3125   0.308
V18     V     0.5541   0.8125   0.308
V19     V     0.5541   0.0625   0.442
V20     V     0.5541   0.5625   0.442
V21     V     0.6959   0.3125   0.308
V22     V     0.6959   0.8125   0.308
V23     V     0.6959   0.0625   0.442
V24     V     0.6959   0.5625   0.442
V25     V     0.5541   0.3125   0.942
V26     V     0.5541   0.8125   0.942
V27     V     0.5541   0.0625   0.808
V28     V     0.5541   0.5625   0.808
V29     V     0.6959   0.3125   0.942
V30     V     0.6959   0.8125   0.942
V31     V     0.6959   0.0625   0.808
V32     V     0.6959   0.5625   0.808
V33     V     0.0541   0.3125   0.808
V34     V     0.0541   0.8125   0.808
V35     V     0.0541   0.0625   0.942
V36     V     0.0541   0.5625   0.942
V37     V     0.1959   0.3125   0.808
V38     V     0.1959   0.8125   0.808
V39     V     0.1959   0.0625   0.942
V40     V     0.1959   0.5625   0.942
V41     V     0.4459   0.1875   0.692
V42     V     0.4459   0.6875   0.692
V43     V     0.4459   0.4375   0.558
V44     V     0.4459   0.9375   0.558
V45     V     0.3041   0.1875   0.692
V46     V     0.3041   0.6875   0.692
V47     V     0.3041   0.4375   0.558
V48     V     0.3041   0.9375   0.558
V49     V     0.4459   0.1875   0.058
V50     V     0.4459   0.6875   0.058
V51     V     0.4459   0.4375   0.192
V52     V     0.4459   0.9375   0.192
V53     V     0.3041   0.1875   0.058
V54     V     0.3041   0.6875   0.058
V55     V     0.3041   0.4375   0.192
V56     V     0.3041   0.9375   0.192
V57     V     0.1959   0.3125   0.442
V58     V     0.1959   0.8125   0.442
V59     V     0.1959   0.0625   0.308
V60     V     0.1959   0.5625   0.308
V61     V     0.0541   0.3125   0.442
V62     V     0.0541   0.8125   0.442
V63     V     0.0541   0.0625   0.308
V64     V     0.0541   0.5625   0.308
Er65     Er     0.125   0.0625   0.741
Er66     Er     0.125   0.5625   0.741
Er67     Er     0.875   0.4375   0.259
Er68     Er     0.875   0.9375   0.259
Er69     Er     0.125   0.3125   0.009
Er70     Er     0.125   0.8125   0.009
Er71     Er     0.125   0.3125   0.241
Er72     Er     0.125   0.8125   0.241
Er73     Er     0.375   0.1875   0.259
Er74     Er     0.375   0.6875   0.259
Er75     Er     0.125   0.0625   0.509
Er76     Er     0.125   0.5625   0.509
Er77     Er     0.875   0.1875   0.991
Er78     Er     0.875   0.6875   0.991
Er79     Er     0.875   0.1875   0.759
Er80     Er     0.875   0.6875   0.759
Er81     Er     0.625   0.0625   0.009
Er82     Er     0.625   0.5625   0.009
Er83     Er     0.625   0.0625   0.241
Er84     Er     0.625   0.5625   0.241
Er85     Er     0.375   0.4375   0.991
Er86     Er     0.375   0.9375   0.991
Er87     Er     0.375   0.4375   0.759
Er88     Er     0.375   0.9375   0.759
Er89     Er     0.625   0.3125   0.741
Er90     Er     0.625   0.8125   0.741
Er91     Er     0.875   0.4375   0.491
Er92     Er     0.875   0.9375   0.491
Er93     Er     0.625   0.3125   0.509
Er94     Er     0.625   0.8125   0.509
Er95     Er     0.375   0.1875   0.491
Er96     Er     0.375   0.6875   0.491
loop_
_geom_bond_atom_site_label_1
_geom_bond_atom_site_label_2
_geom_bond_distance
_geom_bond_site_symmetry_2
_ccdc_geom_bond_type
V1     Er92    10.0   1_545     S
V1     Er91    10.0   .     S
V1     V3    10.0   .     S
V1     Er79    10.0   .     S
V1     V4    10.0   1_545     S
V1     V7    10.0   .     S
V1     V61    10.0   1_655     S
V2     Er91    10.0   .     S
V2     Er92    10.0   .     S
V2     V4    10.0   .     S
V2     Er80    10.0   .     S
V2     V3    10.0   .     S
V2     V8    10.0   .     S
V2     V62    10.0   1_655     S
V3     Er79    10.0   .     S
V3     Er80    10.0   .     S
V3     Er91    10.0   .     S
V3     V5    10.0   .     S
V3     V33    10.0   1_655     S
V4     Er80    10.0   .     S
V4     Er79    10.0   1_565     S
V4     Er92    10.0   .     S
V4     V1    10.0   1_565     S
V4     V6    10.0   .     S
V4     V34    10.0   1_655     S
V5     Er79    10.0   .     S
V5     Er80    10.0   .     S
V5     V8    10.0   .     S
V5     Er91    10.0   .     S
V5     V7    10.0   .     S
V5     V32    10.0   .     S
V6     Er80    10.0   .     S
V6     Er79    10.0   1_565     S
V6     V7    10.0   1_565     S
V6     Er92    10.0   .     S
V6     V8    10.0   .     S
V6     V31    10.0   1_565     S
V7     Er92    10.0   1_545     S
V7     Er91    10.0   .     S
V7     V6    10.0   1_545     S
V7     Er79    10.0   .     S
V7     V23    10.0   .     S
V8     Er91    10.0   .     S
V8     Er92    10.0   .     S
V8     Er80    10.0   .     S
V8     V24    10.0   .     S
V9     Er68    10.0   1_545     S
V9     Er67    10.0   .     S
V9     V11    10.0   .     S
V9     Er77    10.0   1_554     S
V9     V12    10.0   1_545     S
V9     V15    10.0   .     S
V9     V21    10.0   .     S
V10     Er67    10.0   .     S
V10     Er68    10.0   .     S
V10     V12    10.0   .     S
V10     Er78    10.0   1_554     S
V10     V11    10.0   .     S
V10     V16    10.0   .     S
V10     V22    10.0   .     S
V11     Er77    10.0   1_554     S
V11     Er78    10.0   1_554     S
V11     Er67    10.0   .     S
V11     V13    10.0   .     S
V11     V29    10.0   1_554     S
V12     Er78    10.0   1_554     S
V12     Er77    10.0   1_564     S
V12     Er68    10.0   .     S
V12     V9    10.0   1_565     S
V12     V14    10.0   .     S
V12     V30    10.0   1_554     S
V13     Er77    10.0   1_554     S
V13     Er78    10.0   1_554     S
V13     V16    10.0   .     S
V13     Er67    10.0   .     S
V13     V15    10.0   .     S
V13     V36    10.0   1_654     S
V14     Er78    10.0   1_554     S
V14     Er77    10.0   1_564     S
V14     V15    10.0   1_565     S
V14     Er68    10.0   .     S
V14     V16    10.0   .     S
V14     V35    10.0   1_664     S
V15     Er68    10.0   1_545     S
V15     Er67    10.0   .     S
V15     V14    10.0   1_545     S
V15     Er77    10.0   1_554     S
V15     V63    10.0   1_655     S
V16     Er67    10.0   .     S
V16     Er68    10.0   .     S
V16     Er78    10.0   1_554     S
V16     V64    10.0   1_655     S
V17     Er84    10.0   .     S
V17     Er83    10.0   .     S
V17     V20    10.0   .     S
V17     Er93    10.0   .     S
V17     V19    10.0   .     S
V17     V21    10.0   .     S
V17     V51    10.0   .     S
V18     Er83    10.0   1_565     S
V18     Er84    10.0   .     S
V18     V19    10.0   1_565     S
V18     Er94    10.0   .     S
V18     V20    10.0   .     S
V18     V22    10.0   .     S
V18     V52    10.0   .     S
V19     Er93    10.0   .     S
V19     Er94    10.0   1_545     S
V19     V18    10.0   1_545     S
V19     Er83    10.0   .     S
V19     V23    10.0   .     S
V19     V44    10.0   1_545     S
V20     Er94    10.0   .     S
V20     Er93    10.0   .     S
V20     Er84    10.0   .     S
V20     V24    10.0   .     S
V20     V43    10.0   .     S
V21     Er84    10.0   .     S
V21     Er83    10.0   .     S
V21     V23    10.0   .     S
V21     Er93    10.0   .     S
V21     V24    10.0   .     S
V22     Er83    10.0   1_565     S
V22     Er84    10.0   .     S
V22     V24    10.0   .     S
V22     Er94    10.0   .     S
V22     V23    10.0   1_565     S
V23     Er93    10.0   .     S
V23     Er94    10.0   1_545     S
V23     Er83    10.0   .     S
V23     V22    10.0   1_545     S
V24     Er94    10.0   .     S
V24     Er93    10.0   .     S
V24     Er84    10.0   .     S
V25     Er82    10.0   1_556     S
V25     Er81    10.0   1_556     S
V25     V27    10.0   .     S
V25     Er89    10.0   .     S
V25     V28    10.0   .     S
V25     V29    10.0   .     S
V25     V49    10.0   1_556     S
V26     Er81    10.0   1_566     S
V26     Er82    10.0   1_556     S
V26     V28    10.0   .     S
V26     Er90    10.0   .     S
V26     V27    10.0   1_565     S
V26     V30    10.0   .     S
V26     V50    10.0   1_556     S
V27     Er89    10.0   .     S
V27     Er90    10.0   1_545     S
V27     Er81    10.0   1_556     S
V27     V26    10.0   1_545     S
V27     V31    10.0   .     S
V27     V41    10.0   .     S
V28     Er90    10.0   .     S
V28     Er89    10.0   .     S
V28     Er82    10.0   1_556     S
V28     V32    10.0   .     S
V28     V42    10.0   .     S
V29     Er82    10.0   1_556     S
V29     Er81    10.0   1_556     S
V29     V32    10.0   .     S
V29     Er89    10.0   .     S
V29     V31    10.0   .     S
V29     V11    10.0   1_556     S
V30     Er81    10.0   1_566     S
V30     Er82    10.0   1_556     S
V30     V31    10.0   1_565     S
V30     Er90    10.0   .     S
V30     V32    10.0   .     S
V30     V12    10.0   1_556     S
V31     Er89    10.0   .     S
V31     Er90    10.0   1_545     S
V31     V30    10.0   1_545     S
V31     Er81    10.0   1_556     S
V31     V6    10.0   1_545     S
V32     Er90    10.0   .     S
V32     Er89    10.0   .     S
V32     Er82    10.0   1_556     S
V33     Er66    10.0   .     S
V33     Er65    10.0   .     S
V33     V36    10.0   .     S
V33     Er69    10.0   1_556     S
V33     V35    10.0   .     S
V33     V37    10.0   .     S
V33     V3    10.0   1_455     S
V34     Er65    10.0   1_565     S
V34     Er66    10.0   .     S
V34     V35    10.0   1_565     S
V34     Er70    10.0   1_556     S
V34     V36    10.0   .     S
V34     V38    10.0   .     S
V34     V4    10.0   1_455     S
V35     Er69    10.0   1_556     S
V35     Er70    10.0   1_546     S
V35     V34    10.0   1_545     S
V35     Er65    10.0   .     S
V35     V39    10.0   .     S
V35     V14    10.0   1_446     S
V36     Er70    10.0   1_556     S
V36     Er69    10.0   1_556     S
V36     Er66    10.0   .     S
V36     V40    10.0   .     S
V36     V13    10.0   1_456     S
V37     Er66    10.0   .     S
V37     Er65    10.0   .     S
V37     V39    10.0   .     S
V37     Er69    10.0   1_556     S
V37     V40    10.0   .     S
V37     V45    10.0   .     S
V38     Er65    10.0   1_565     S
V38     Er66    10.0   .     S
V38     V40    10.0   .     S
V38     Er70    10.0   1_556     S
V38     V39    10.0   1_565     S
V38     V46    10.0   .     S
V39     Er69    10.0   1_556     S
V39     Er70    10.0   1_546     S
V39     Er65    10.0   .     S
V39     V38    10.0   1_545     S
V39     V53    10.0   1_556     S
V40     Er70    10.0   1_556     S
V40     Er69    10.0   1_556     S
V40     Er66    10.0   .     S
V40     V54    10.0   1_556     S
V41     Er88    10.0   1_545     S
V41     Er87    10.0   .     S
V41     V44    10.0   1_545     S
V41     Er95    10.0   .     S
V41     V43    10.0   .     S
V41     V45    10.0   .     S
V42     Er87    10.0   .     S
V42     Er88    10.0   .     S
V42     V43    10.0   .     S
V42     Er96    10.0   .     S
V42     V44    10.0   .     S
V42     V46    10.0   .     S
V43     Er95    10.0   .     S
V43     Er96    10.0   .     S
V43     Er87    10.0   .     S
V43     V47    10.0   .     S
V44     V19    10.0   1_565     S
V44     Er96    10.0   .     S
V44     Er95    10.0   1_565     S
V44     V41    10.0   1_565     S
V44     Er88    10.0   .     S
V44     V48    10.0   .     S
V45     Er88    10.0   1_545     S
V45     Er87    10.0   .     S
V45     V47    10.0   .     S
V45     Er95    10.0   .     S
V45     V48    10.0   1_545     S
V46     Er87    10.0   .     S
V46     Er88    10.0   .     S
V46     V48    10.0   .     S
V46     Er96    10.0   .     S
V46     V47    10.0   .     S
V47     Er95    10.0   .     S
V47     Er96    10.0   .     S
V47     Er87    10.0   .     S
V47     V57    10.0   .     S
V48     Er96    10.0   .     S
V48     Er95    10.0   1_565     S
V48     Er88    10.0   .     S
V48     V45    10.0   1_565     S
V48     V58    10.0   .     S
V49     V25    10.0   1_554     S
V49     Er86    10.0   1_544     S
V49     Er85    10.0   1_554     S
V49     V51    10.0   .     S
V49     Er73    10.0   .     S
V49     V52    10.0   1_545     S
V49     V53    10.0   .     S
V50     V26    10.0   1_554     S
V50     Er85    10.0   1_554     S
V50     Er86    10.0   1_554     S
V50     V52    10.0   .     S
V50     Er74    10.0   .     S
V50     V51    10.0   .     S
V50     V54    10.0   .     S
V51     Er73    10.0   .     S
V51     Er74    10.0   .     S
V51     Er85    10.0   1_554     S
V51     V55    10.0   .     S
V52     Er74    10.0   .     S
V52     Er73    10.0   1_565     S
V52     Er86    10.0   1_554     S
V52     V49    10.0   1_565     S
V52     V56    10.0   .     S
V53     V39    10.0   1_554     S
V53     Er86    10.0   1_544     S
V53     Er85    10.0   1_554     S
V53     V55    10.0   .     S
V53     V56    10.0   1_545     S
V53     Er73    10.0   .     S
V54     V40    10.0   1_554     S
V54     Er85    10.0   1_554     S
V54     Er86    10.0   1_554     S
V54     V56    10.0   .     S
V54     V55    10.0   .     S
V54     Er74    10.0   .     S
V55     Er73    10.0   .     S
V55     Er74    10.0   .     S
V55     Er85    10.0   1_554     S
V55     V60    10.0   .     S
V56     Er74    10.0   .     S
V56     Er73    10.0   1_565     S
V56     Er86    10.0   1_554     S
V56     V53    10.0   1_565     S
V56     V59    10.0   1_565     S
V57     Er76    10.0   .     S
V57     Er75    10.0   .     S
V57     V59    10.0   .     S
V57     V60    10.0   .     S
V57     Er71    10.0   .     S
V57     V61    10.0   .     S
V58     Er75    10.0   1_565     S
V58     Er76    10.0   .     S
V58     V60    10.0   .     S
V58     V59    10.0   1_565     S
V58     Er72    10.0   .     S
V58     V62    10.0   .     S
V59     Er75    10.0   .     S
V59     V58    10.0   1_545     S
V59     Er71    10.0   .     S
V59     Er72    10.0   1_545     S
V59     V63    10.0   .     S
V59     V56    10.0   1_545     S
V60     Er76    10.0   .     S
V60     Er72    10.0   .     S
V60     Er71    10.0   .     S
V60     V64    10.0   .     S
V61     Er76    10.0   .     S
V61     Er75    10.0   .     S
V61     V63    10.0   .     S
V61     Er71    10.0   .     S
V61     V64    10.0   .     S
V61     V1    10.0   1_455     S
V62     Er75    10.0   1_565     S
V62     Er76    10.0   .     S
V62     V64    10.0   .     S
V62     Er72    10.0   .     S
V62     V63    10.0   1_565     S
V62     V2    10.0   1_455     S
V63     Er71    10.0   .     S
V63     Er72    10.0   1_545     S
V63     Er75    10.0   .     S
V63     V62    10.0   1_545     S
V63     V15    10.0   1_455     S
V64     Er72    10.0   .     S
V64     Er71    10.0   .     S
V64     Er76    10.0   .     S
V64     V16    10.0   1_455     S
Er65     V34    10.0   1_545     S
Er65     V38    10.0   1_545     S
Er65     Er75    10.0   .     S
Er66     Er76    10.0   .     S
Er67     Er91    10.0   .     S
Er68     V9    10.0   1_565     S
Er68     V15    10.0   1_565     S
Er68     Er92    10.0   .     S
Er69     V35    10.0   1_554     S
Er69     V36    10.0   1_554     S
Er69     V33    10.0   1_554     S
Er69     V39    10.0   1_554     S
Er69     V40    10.0   1_554     S
Er69     V37    10.0   1_554     S
Er69     Er71    10.0   .     S
Er70     V36    10.0   1_554     S
Er70     V35    10.0   1_564     S
Er70     V34    10.0   1_554     S
Er70     V40    10.0   1_554     S
Er70     V39    10.0   1_564     S
Er70     V38    10.0   1_554     S
Er70     Er72    10.0   .     S
Er72     V59    10.0   1_565     S
Er72     V63    10.0   1_565     S
Er73     V52    10.0   1_545     S
Er73     V56    10.0   1_545     S
Er73     Er95    10.0   .     S
Er74     Er96    10.0   .     S
Er75     V58    10.0   1_545     S
Er75     V62    10.0   1_545     S
Er77     V11    10.0   1_556     S
Er77     V12    10.0   1_546     S
Er77     V9    10.0   1_556     S
Er77     V13    10.0   1_556     S
Er77     V14    10.0   1_546     S
Er77     V15    10.0   1_556     S
Er77     Er79    10.0   .     S
Er78     V12    10.0   1_556     S
Er78     V11    10.0   1_556     S
Er78     V10    10.0   1_556     S
Er78     V14    10.0   1_556     S
Er78     V13    10.0   1_556     S
Er78     V16    10.0   1_556     S
Er78     Er80    10.0   .     S
Er79     V4    10.0   1_545     S
Er79     V6    10.0   1_545     S
Er81     V26    10.0   1_544     S
Er81     V25    10.0   1_554     S
Er81     V27    10.0   1_554     S
Er81     V30    10.0   1_544     S
Er81     V29    10.0   1_554     S
Er81     V31    10.0   1_554     S
Er81     Er83    10.0   .     S
Er82     V25    10.0   1_554     S
Er82     V26    10.0   1_554     S
Er82     V28    10.0   1_554     S
Er82     V29    10.0   1_554     S
Er82     V30    10.0   1_554     S
Er82     V32    10.0   1_554     S
Er82     Er84    10.0   .     S
Er83     V18    10.0   1_545     S
Er83     V22    10.0   1_545     S
Er85     V50    10.0   1_556     S
Er85     V49    10.0   1_556     S
Er85     V51    10.0   1_556     S
Er85     V54    10.0   1_556     S
Er85     V53    10.0   1_556     S
Er85     V55    10.0   1_556     S
Er85     Er87    10.0   .     S
Er86     V49    10.0   1_566     S
Er86     V50    10.0   1_556     S
Er86     V52    10.0   1_556     S
Er86     V53    10.0   1_566     S
Er86     V54    10.0   1_556     S
Er86     V56    10.0   1_556     S
Er86     Er88    10.0   .     S
Er88     V41    10.0   1_565     S
Er88     V45    10.0   1_565     S
Er89     Er93    10.0   .     S
Er90     V27    10.0   1_565     S
Er90     V31    10.0   1_565     S
Er90     Er94    10.0   .     S
Er92     V1    10.0   1_565     S
Er92     V7    10.0   1_565     S
Er94     V19    10.0   1_565     S
Er94     V23    10.0   1_565     S
Er95     V44    10.0   1_545     S
Er95     V48    10.0   1_545     S
