data_sda
_audit_creation_date              2019-12-31
_audit_creation_method            'Pymatgen'
_symmetry_space_group_name_H-M    'P1'
_symmetry_Int_Tables_number       1
loop_
_symmetry_equiv_pos_as_xyz
  x,y,z
_cell_length_a                    30.0
_cell_length_b                    30.0
_cell_length_c                    34.6409
_cell_angle_alpha                 90.0
_cell_angle_beta                 90.0
_cell_angle_gamma                 90.0
loop_
_atom_site_label
_atom_site_type_symbol
_atom_site_fract_x
_atom_site_fract_y
_atom_site_fract_z
V1     V     0.1667   0.1667   0.0
V2     V     0.1667   0.5   0.0
V3     V     0.1667   0.8333   0.0
V4     V     0.5   0.1667   0.0
V5     V     0.5   0.5   0.0
V6     V     0.5   0.8333   0.0
V7     V     0.8333   0.1667   0.0
V8     V     0.8333   0.5   0.0
V9     V     0.8333   0.8333   0.0
V10     V     0.0   0.0   0.5
V11     V     0.0   0.3333   0.5
V12     V     0.0   0.6667   0.5
V13     V     0.3333   0.0   0.5
V14     V     0.3333   0.3333   0.5
V15     V     0.3333   0.6667   0.5
V16     V     0.6667   0.0   0.5
V17     V     0.6667   0.3333   0.5
V18     V     0.6667   0.6667   0.5
V19     V     0.1667   0.0   0.25
V20     V     0.1667   0.3333   0.25
V21     V     0.1667   0.6667   0.25
V22     V     0.5   0.0   0.25
V23     V     0.5   0.3333   0.25
V24     V     0.5   0.6667   0.25
V25     V     0.8333   0.0   0.25
V26     V     0.8333   0.3333   0.25
V27     V     0.8333   0.6667   0.25
V28     V     0.0   0.1667   0.75
V29     V     0.0   0.5   0.75
V30     V     0.0   0.8333   0.75
V31     V     0.3333   0.1667   0.75
V32     V     0.3333   0.5   0.75
V33     V     0.3333   0.8333   0.75
V34     V     0.6667   0.1667   0.75
V35     V     0.6667   0.5   0.75
V36     V     0.6667   0.8333   0.75
loop_
_geom_bond_atom_site_label_1
_geom_bond_atom_site_label_2
_geom_bond_distance
_geom_bond_site_symmetry_2
_ccdc_geom_bond_type
V1     V28    10.0   1_554     S
V1     V7    10.0   1_455     S
V1     V4    10.0   .     S
V1     V31    10.0   1_554     S
V1     V20    10.0   .     S
V1     V19    10.0   .     S
V2     V29    10.0   1_554     S
V2     V8    10.0   1_455     S
V2     V5    10.0   .     S
V2     V32    10.0   1_554     S
V2     V21    10.0   .     S
V2     V20    10.0   .     S
V3     V30    10.0   1_554     S
V3     V9    10.0   1_455     S
V3     V6    10.0   .     S
V3     V33    10.0   1_554     S
V3     V19    10.0   1_565     S
V3     V21    10.0   .     S
V4     V31    10.0   1_554     S
V4     V7    10.0   .     S
V4     V34    10.0   1_554     S
V4     V23    10.0   .     S
V4     V22    10.0   .     S
V5     V32    10.0   1_554     S
V5     V8    10.0   .     S
V5     V35    10.0   1_554     S
V5     V24    10.0   .     S
V5     V23    10.0   .     S
V6     V33    10.0   1_554     S
V6     V9    10.0   .     S
V6     V36    10.0   1_554     S
V6     V22    10.0   1_565     S
V6     V24    10.0   .     S
V7     V34    10.0   1_554     S
V7     V1    10.0   1_655     S
V7     V28    10.0   1_654     S
V7     V26    10.0   .     S
V7     V25    10.0   .     S
V8     V35    10.0   1_554     S
V8     V2    10.0   1_655     S
V8     V29    10.0   1_654     S
V8     V27    10.0   .     S
V8     V26    10.0   .     S
V9     V36    10.0   1_554     S
V9     V3    10.0   1_655     S
V9     V30    10.0   1_654     S
V9     V25    10.0   1_565     S
V9     V27    10.0   .     S
V10     V30    10.0   1_545     S
V10     V28    10.0   .     S
V10     V19    10.0   .     S
V10     V13    10.0   .     S
V10     V16    10.0   1_455     S
V10     V25    10.0   1_455     S
V11     V28    10.0   .     S
V11     V29    10.0   .     S
V11     V20    10.0   .     S
V11     V14    10.0   .     S
V11     V17    10.0   1_455     S
V11     V26    10.0   1_455     S
V12     V29    10.0   .     S
V12     V30    10.0   .     S
V12     V21    10.0   .     S
V12     V15    10.0   .     S
V12     V18    10.0   1_455     S
V12     V27    10.0   1_455     S
V13     V33    10.0   1_545     S
V13     V31    10.0   .     S
V13     V22    10.0   .     S
V13     V16    10.0   .     S
V13     V19    10.0   .     S
V14     V31    10.0   .     S
V14     V32    10.0   .     S
V14     V23    10.0   .     S
V14     V17    10.0   .     S
V14     V20    10.0   .     S
V15     V32    10.0   .     S
V15     V33    10.0   .     S
V15     V24    10.0   .     S
V15     V18    10.0   .     S
V15     V21    10.0   .     S
V16     V36    10.0   1_545     S
V16     V34    10.0   .     S
V16     V25    10.0   .     S
V16     V10    10.0   1_655     S
V16     V22    10.0   .     S
V17     V34    10.0   .     S
V17     V35    10.0   .     S
V17     V26    10.0   .     S
V17     V11    10.0   1_655     S
V17     V23    10.0   .     S
V18     V35    10.0   .     S
V18     V36    10.0   .     S
V18     V27    10.0   .     S
V18     V12    10.0   1_655     S
V18     V24    10.0   .     S
V19     V3    10.0   1_545     S
V19     V20    10.0   .     S
V19     V21    10.0   1_545     S
V20     V21    10.0   .     S
V21     V19    10.0   1_565     S
V22     V6    10.0   1_545     S
V22     V23    10.0   .     S
V22     V24    10.0   1_545     S
V23     V24    10.0   .     S
V24     V22    10.0   1_565     S
V25     V9    10.0   1_545     S
V25     V26    10.0   .     S
V25     V27    10.0   1_545     S
V25     V10    10.0   1_655     S
V26     V27    10.0   .     S
V26     V11    10.0   1_655     S
V27     V25    10.0   1_565     S
V27     V12    10.0   1_655     S
V28     V1    10.0   1_556     S
V28     V7    10.0   1_456     S
V28     V30    10.0   1_545     S
V28     V29    10.0   .     S
V29     V2    10.0   1_556     S
V29     V8    10.0   1_456     S
V29     V30    10.0   .     S
V30     V3    10.0   1_556     S
V30     V9    10.0   1_456     S
V30     V10    10.0   1_565     S
V30     V28    10.0   1_565     S
V31     V4    10.0   1_556     S
V31     V1    10.0   1_556     S
V31     V33    10.0   1_545     S
V31     V32    10.0   .     S
V32     V5    10.0   1_556     S
V32     V2    10.0   1_556     S
V32     V33    10.0   .     S
V33     V6    10.0   1_556     S
V33     V3    10.0   1_556     S
V33     V13    10.0   1_565     S
V33     V31    10.0   1_565     S
V34     V7    10.0   1_556     S
V34     V4    10.0   1_556     S
V34     V36    10.0   1_545     S
V34     V35    10.0   .     S
V35     V8    10.0   1_556     S
V35     V5    10.0   1_556     S
V35     V36    10.0   .     S
V36     V9    10.0   1_556     S
V36     V6    10.0   1_556     S
V36     V16    10.0   1_565     S
V36     V34    10.0   1_565     S
