data_sea
_audit_creation_date              2019-12-31
_audit_creation_method            'Pymatgen'
_symmetry_space_group_name_H-M    'P1'
_symmetry_Int_Tables_number       1
loop_
_symmetry_equiv_pos_as_xyz
  x,y,z
_cell_length_a                    24.5324
_cell_length_b                    40.0
_cell_length_c                    24.4574
_cell_angle_alpha                 90.0
_cell_angle_beta                 90.0
_cell_angle_gamma                 90.0
loop_
_atom_site_label
_atom_site_type_symbol
_atom_site_fract_x
_atom_site_fract_y
_atom_site_fract_z
V1     V     0.5   0.25   0.0
V2     V     0.5   0.25   0.5
V3     V     0.5   0.75   0.0
V4     V     0.5   0.75   0.5
Er5     Er     0.25   0.125   0.25
Er6     Er     0.25   0.125   0.75
Er7     Er     0.25   0.625   0.25
Er8     Er     0.25   0.625   0.75
Er9     Er     0.25   0.375   0.25
Er10     Er     0.25   0.375   0.75
Er11     Er     0.25   0.875   0.25
Er12     Er     0.25   0.875   0.75
Er13     Er     0.75   0.375   0.25
Er14     Er     0.75   0.375   0.75
Er15     Er     0.75   0.875   0.25
Er16     Er     0.75   0.875   0.75
Er17     Er     0.75   0.125   0.25
Er18     Er     0.75   0.125   0.75
Er19     Er     0.75   0.625   0.25
Er20     Er     0.75   0.625   0.75
V21     V     0.0   0.0   0.0
V22     V     0.0   0.0   0.5
V23     V     0.0   0.5   0.0
V24     V     0.0   0.5   0.5
loop_
_geom_bond_atom_site_label_1
_geom_bond_atom_site_label_2
_geom_bond_distance
_geom_bond_site_symmetry_2
_ccdc_geom_bond_type
V1     Er10    10.0   1_554     S
V1     Er6    10.0   1_554     S
V1     Er18    10.0   1_554     S
V1     Er14    10.0   1_554     S
V1     Er13    10.0   .     S
V1     Er17    10.0   .     S
V1     Er5    10.0   .     S
V1     Er9    10.0   .     S
V2     Er9    10.0   .     S
V2     Er5    10.0   .     S
V2     Er17    10.0   .     S
V2     Er13    10.0   .     S
V2     Er14    10.0   .     S
V2     Er18    10.0   .     S
V2     Er6    10.0   .     S
V2     Er10    10.0   .     S
V3     Er12    10.0   1_554     S
V3     Er8    10.0   1_554     S
V3     Er20    10.0   1_554     S
V3     Er16    10.0   1_554     S
V3     Er15    10.0   .     S
V3     Er19    10.0   .     S
V3     Er7    10.0   .     S
V3     Er11    10.0   .     S
V4     Er11    10.0   .     S
V4     Er7    10.0   .     S
V4     Er19    10.0   .     S
V4     Er15    10.0   .     S
V4     Er16    10.0   .     S
V4     Er20    10.0   .     S
V4     Er8    10.0   .     S
V4     Er12    10.0   .     S
Er5     Er11    10.0   1_545     S
Er5     Er9    10.0   .     S
Er5     V22    10.0   .     S
Er5     V21    10.0   .     S
Er6     V1    10.0   1_556     S
Er6     Er12    10.0   1_545     S
Er6     Er10    10.0   .     S
Er6     V21    10.0   1_556     S
Er6     V22    10.0   .     S
Er7     Er9    10.0   .     S
Er7     Er11    10.0   .     S
Er7     V24    10.0   .     S
Er7     V23    10.0   .     S
Er8     V3    10.0   1_556     S
Er8     Er10    10.0   .     S
Er8     Er12    10.0   .     S
Er8     V23    10.0   1_556     S
Er8     V24    10.0   .     S
Er9     V24    10.0   .     S
Er9     V23    10.0   .     S
Er10     V1    10.0   1_556     S
Er10     V23    10.0   1_556     S
Er10     V24    10.0   .     S
Er11     Er5    10.0   1_565     S
Er11     V22    10.0   1_565     S
Er11     V21    10.0   1_565     S
Er12     V3    10.0   1_556     S
Er12     Er6    10.0   1_565     S
Er12     V21    10.0   1_566     S
Er12     V22    10.0   1_565     S
Er13     Er19    10.0   .     S
Er13     Er17    10.0   .     S
Er13     V24    10.0   1_655     S
Er13     V23    10.0   1_655     S
Er14     V1    10.0   1_556     S
Er14     Er20    10.0   .     S
Er14     Er18    10.0   .     S
Er14     V23    10.0   1_656     S
Er14     V24    10.0   1_655     S
Er15     Er17    10.0   1_565     S
Er15     Er19    10.0   .     S
Er15     V22    10.0   1_665     S
Er15     V21    10.0   1_665     S
Er16     V3    10.0   1_556     S
Er16     Er18    10.0   1_565     S
Er16     Er20    10.0   .     S
Er16     V21    10.0   1_666     S
Er16     V22    10.0   1_665     S
Er17     Er15    10.0   1_545     S
Er17     V22    10.0   1_655     S
Er17     V21    10.0   1_655     S
Er18     V1    10.0   1_556     S
Er18     Er16    10.0   1_545     S
Er18     V21    10.0   1_656     S
Er18     V22    10.0   1_655     S
Er19     V24    10.0   1_655     S
Er19     V23    10.0   1_655     S
Er20     V3    10.0   1_556     S
Er20     V23    10.0   1_656     S
Er20     V24    10.0   1_655     S
V21     Er12    10.0   1_544     S
V21     Er6    10.0   1_554     S
V21     Er11    10.0   1_545     S
V21     Er18    10.0   1_454     S
V21     Er16    10.0   1_444     S
V21     Er15    10.0   1_445     S
V21     Er17    10.0   1_455     S
V22     Er11    10.0   1_545     S
V22     Er12    10.0   1_545     S
V22     Er17    10.0   1_455     S
V22     Er15    10.0   1_445     S
V22     Er16    10.0   1_445     S
V22     Er18    10.0   1_455     S
V23     Er10    10.0   1_554     S
V23     Er8    10.0   1_554     S
V23     Er20    10.0   1_454     S
V23     Er14    10.0   1_454     S
V23     Er13    10.0   1_455     S
V23     Er19    10.0   1_455     S
V24     Er19    10.0   1_455     S
V24     Er13    10.0   1_455     S
V24     Er14    10.0   1_455     S
V24     Er20    10.0   1_455     S
