data_seh
_audit_creation_date              2019-12-31
_audit_creation_method            'Pymatgen'
_symmetry_space_group_name_H-M    'P1'
_symmetry_Int_Tables_number       1
loop_
_symmetry_equiv_pos_as_xyz
  x,y,z
_cell_length_a                    30.0
_cell_length_b                    30.0
_cell_length_c                    39.9998
_cell_angle_alpha                 90.0
_cell_angle_beta                 90.0
_cell_angle_gamma                 120.0
loop_
_atom_site_label
_atom_site_type_symbol
_atom_site_fract_x
_atom_site_fract_y
_atom_site_fract_z
Er1     Er     0.1667   0.3333   0.125
Er2     Er     0.1667   0.3333   0.625
Er3     Er     0.1667   0.8333   0.125
Er4     Er     0.1667   0.8333   0.625
Er5     Er     0.6667   0.3333   0.125
Er6     Er     0.6667   0.3333   0.625
Er7     Er     0.6667   0.8333   0.125
Er8     Er     0.6667   0.8333   0.625
Er9     Er     0.3333   0.1667   0.375
Er10     Er     0.3333   0.1667   0.875
Er11     Er     0.3333   0.6667   0.375
Er12     Er     0.3333   0.6667   0.875
Er13     Er     0.8333   0.1667   0.375
Er14     Er     0.8333   0.1667   0.875
Er15     Er     0.8333   0.6667   0.375
Er16     Er     0.8333   0.6667   0.875
V17     V     0.0   0.0   0.0
V18     V     0.0   0.0   0.5
V19     V     0.0   0.5   0.0
V20     V     0.0   0.5   0.5
V21     V     0.5   0.0   0.0
V22     V     0.5   0.0   0.5
V23     V     0.5   0.5   0.0
V24     V     0.5   0.5   0.5
V25     V     0.0   0.0   0.25
V26     V     0.0   0.0   0.75
V27     V     0.0   0.5   0.25
V28     V     0.0   0.5   0.75
V29     V     0.5   0.0   0.25
V30     V     0.5   0.0   0.75
V31     V     0.5   0.5   0.25
V32     V     0.5   0.5   0.75
loop_
_geom_bond_atom_site_label_1
_geom_bond_atom_site_label_2
_geom_bond_distance
_geom_bond_site_symmetry_2
_ccdc_geom_bond_type
Er1     V19    10.0   .     S
Er1     V23    10.0   .     S
Er1     V27    10.0   .     S
Er1     V31    10.0   .     S
Er1     V17    10.0   .     S
Er1     V25    10.0   .     S
Er2     V20    10.0   .     S
Er2     V24    10.0   .     S
Er2     V28    10.0   .     S
Er2     V32    10.0   .     S
Er2     V18    10.0   .     S
Er2     V26    10.0   .     S
Er3     V17    10.0   1_565     S
Er3     V21    10.0   1_565     S
Er3     V25    10.0   1_565     S
Er3     V29    10.0   1_565     S
Er3     V19    10.0   .     S
Er3     V27    10.0   .     S
Er4     V18    10.0   1_565     S
Er4     V22    10.0   1_565     S
Er4     V26    10.0   1_565     S
Er4     V30    10.0   1_565     S
Er4     V20    10.0   .     S
Er4     V28    10.0   .     S
Er5     V23    10.0   .     S
Er5     V19    10.0   1_655     S
Er5     V31    10.0   .     S
Er5     V27    10.0   1_655     S
Er5     V21    10.0   .     S
Er5     V29    10.0   .     S
Er6     V24    10.0   .     S
Er6     V20    10.0   1_655     S
Er6     V32    10.0   .     S
Er6     V28    10.0   1_655     S
Er6     V22    10.0   .     S
Er6     V30    10.0   .     S
Er7     V21    10.0   1_565     S
Er7     V17    10.0   1_665     S
Er7     V29    10.0   1_565     S
Er7     V25    10.0   1_665     S
Er7     V23    10.0   .     S
Er7     V31    10.0   .     S
Er8     V22    10.0   1_565     S
Er8     V18    10.0   1_665     S
Er8     V30    10.0   1_565     S
Er8     V26    10.0   1_665     S
Er8     V24    10.0   .     S
Er8     V32    10.0   .     S
Er9     V18    10.0   .     S
Er9     V25    10.0   .     S
Er9     V24    10.0   .     S
Er9     V31    10.0   .     S
Er9     V22    10.0   .     S
Er9     V29    10.0   .     S
Er10     V17    10.0   1_556     S
Er10     V26    10.0   .     S
Er10     V23    10.0   1_556     S
Er10     V32    10.0   .     S
Er10     V21    10.0   1_556     S
Er10     V30    10.0   .     S
Er11     V20    10.0   .     S
Er11     V27    10.0   .     S
Er11     V22    10.0   1_565     S
Er11     V29    10.0   1_565     S
Er11     V24    10.0   .     S
Er11     V31    10.0   .     S
Er12     V19    10.0   1_556     S
Er12     V28    10.0   .     S
Er12     V21    10.0   1_566     S
Er12     V30    10.0   1_565     S
Er12     V23    10.0   1_556     S
Er12     V32    10.0   .     S
Er13     V22    10.0   .     S
Er13     V29    10.0   .     S
Er13     V20    10.0   1_655     S
Er13     V27    10.0   1_655     S
Er13     V18    10.0   1_655     S
Er13     V25    10.0   1_655     S
Er14     V21    10.0   1_556     S
Er14     V30    10.0   .     S
Er14     V19    10.0   1_656     S
Er14     V28    10.0   1_655     S
Er14     V17    10.0   1_656     S
Er14     V26    10.0   1_655     S
Er15     V24    10.0   .     S
Er15     V31    10.0   .     S
Er15     V18    10.0   1_665     S
Er15     V25    10.0   1_665     S
Er15     V20    10.0   1_655     S
Er15     V27    10.0   1_655     S
Er16     V23    10.0   1_556     S
Er16     V32    10.0   .     S
Er16     V17    10.0   1_666     S
Er16     V26    10.0   1_665     S
Er16     V19    10.0   1_656     S
Er16     V28    10.0   1_655     S
V17     Er3    10.0   1_545     S
V17     Er7    10.0   1_445     S
V17     Er10    10.0   1_554     S
V17     Er16    10.0   1_444     S
V17     Er14    10.0   1_454     S
V17     V26    10.0   1_554     S
V17     V25    10.0   .     S
V18     Er4    10.0   1_545     S
V18     Er8    10.0   1_445     S
V18     Er15    10.0   1_445     S
V18     Er13    10.0   1_455     S
V18     V25    10.0   .     S
V18     V26    10.0   .     S
V19     Er5    10.0   1_455     S
V19     Er12    10.0   1_554     S
V19     Er14    10.0   1_454     S
V19     Er16    10.0   1_454     S
V19     V28    10.0   1_554     S
V19     V27    10.0   .     S
V20     Er6    10.0   1_455     S
V20     Er13    10.0   1_455     S
V20     Er15    10.0   1_455     S
V20     V27    10.0   .     S
V20     V28    10.0   .     S
V21     Er7    10.0   1_545     S
V21     Er3    10.0   1_545     S
V21     Er14    10.0   1_554     S
V21     Er12    10.0   1_544     S
V21     Er10    10.0   1_554     S
V21     V30    10.0   1_554     S
V21     V29    10.0   .     S
V22     Er8    10.0   1_545     S
V22     Er4    10.0   1_545     S
V22     Er11    10.0   1_545     S
V22     V29    10.0   .     S
V22     V30    10.0   .     S
V23     Er16    10.0   1_554     S
V23     Er10    10.0   1_554     S
V23     Er12    10.0   1_554     S
V23     V32    10.0   1_554     S
V23     V31    10.0   .     S
V24     V31    10.0   .     S
V24     V32    10.0   .     S
V25     Er3    10.0   1_545     S
V25     Er7    10.0   1_445     S
V25     Er15    10.0   1_445     S
V25     Er13    10.0   1_455     S
V26     Er4    10.0   1_545     S
V26     Er8    10.0   1_445     S
V26     Er16    10.0   1_445     S
V26     Er14    10.0   1_455     S
V26     V17    10.0   1_556     S
V27     Er5    10.0   1_455     S
V27     Er13    10.0   1_455     S
V27     Er15    10.0   1_455     S
V28     Er6    10.0   1_455     S
V28     Er14    10.0   1_455     S
V28     Er16    10.0   1_455     S
V28     V19    10.0   1_556     S
V29     Er7    10.0   1_545     S
V29     Er3    10.0   1_545     S
V29     Er11    10.0   1_545     S
V30     Er8    10.0   1_545     S
V30     Er4    10.0   1_545     S
V30     Er12    10.0   1_545     S
V30     V21    10.0   1_556     S
V32     V23    10.0   1_556     S
