data_sep
_audit_creation_date              2019-12-31
_audit_creation_method            'Pymatgen'
_symmetry_space_group_name_H-M    'P1'
_symmetry_Int_Tables_number       1
loop_
_symmetry_equiv_pos_as_xyz
  x,y,z
_cell_length_a                    36.85
_cell_length_b                    36.85
_cell_length_c                    25.6719
_cell_angle_alpha                 90.0
_cell_angle_beta                 90.0
_cell_angle_gamma                 120.0
loop_
_atom_site_label
_atom_site_type_symbol
_atom_site_fract_x
_atom_site_fract_y
_atom_site_fract_z
Er1     Er     0.1667   0.3333   0.3593
Er2     Er     0.1667   0.8333   0.3593
Er3     Er     0.6667   0.3333   0.3593
Er4     Er     0.6667   0.8333   0.3593
V5     V     0.1068   0.2136   0.0
V6     V     0.1068   0.7136   0.0
V7     V     0.6068   0.2136   0.0
V8     V     0.6068   0.7136   0.0
V9     V     0.1068   0.3932   0.0
V10     V     0.1068   0.8932   0.0
V11     V     0.6068   0.3932   0.0
V12     V     0.6068   0.8932   0.0
V13     V     0.2864   0.3932   0.0
V14     V     0.2864   0.8932   0.0
V15     V     0.7864   0.3932   0.0
V16     V     0.7864   0.8932   0.0
Er17     Er     0.3333   0.1667   0.8593
Er18     Er     0.3333   0.6667   0.8593
Er19     Er     0.8333   0.1667   0.8593
Er20     Er     0.8333   0.6667   0.8593
V21     V     0.3932   0.2864   0.5
V22     V     0.3932   0.7864   0.5
V23     V     0.8932   0.2864   0.5
V24     V     0.8932   0.7864   0.5
V25     V     0.3932   0.1068   0.5
V26     V     0.3932   0.6068   0.5
V27     V     0.8932   0.1068   0.5
V28     V     0.8932   0.6068   0.5
V29     V     0.2136   0.1068   0.5
V30     V     0.2136   0.6068   0.5
V31     V     0.7136   0.1068   0.5
V32     V     0.7136   0.6068   0.5
loop_
_geom_bond_atom_site_label_1
_geom_bond_atom_site_label_2
_geom_bond_distance
_geom_bond_site_symmetry_2
_ccdc_geom_bond_type
Er1     V5    9.984   .     S
Er1     V9    9.984   .     S
Er1     V13    9.984   .     S
Er1     V30    10.008   .     S
Er1     V26    10.008   .     S
Er1     V27    10.008   1_455     S
Er1     V23    10.008   1_455     S
Er1     V21    10.008   .     S
Er1     V29    10.008   .     S
Er2     V6    9.984   .     S
Er2     V10    9.984   .     S
Er2     V14    9.984   .     S
Er2     V29    10.008   1_565     S
Er2     V25    10.008   1_565     S
Er2     V28    10.008   1_455     S
Er2     V24    10.008   1_455     S
Er2     V22    10.008   .     S
Er2     V30    10.008   .     S
Er3     V7    9.984   .     S
Er3     V11    9.984   .     S
Er3     V15    9.984   .     S
Er3     V32    10.008   .     S
Er3     V28    10.008   .     S
Er3     V25    10.008   .     S
Er3     V21    10.008   .     S
Er3     V23    10.008   .     S
Er3     V31    10.008   .     S
Er4     V8    9.984   .     S
Er4     V12    9.984   .     S
Er4     V16    9.984   .     S
Er4     V31    10.008   1_565     S
Er4     V27    10.008   1_565     S
Er4     V26    10.008   .     S
Er4     V22    10.008   .     S
Er4     V24    10.008   .     S
Er4     V32    10.008   .     S
V5     Er19    10.008   1_454     S
V5     Er17    10.008   1_554     S
V6     Er20    10.008   1_454     S
V6     Er18    10.008   1_554     S
V7     Er17    10.008   1_554     S
V7     Er19    10.008   1_554     S
V8     Er18    10.008   1_554     S
V8     Er20    10.008   1_554     S
V9     Er18    10.008   1_554     S
V9     Er19    10.008   1_454     S
V10     Er17    10.008   1_564     S
V10     Er20    10.008   1_454     S
V11     Er20    10.008   1_554     S
V11     Er17    10.008   1_554     S
V12     Er19    10.008   1_564     S
V12     Er18    10.008   1_554     S
V13     Er18    10.008   1_554     S
V13     Er17    10.008   1_554     S
V14     Er17    10.008   1_564     S
V14     Er18    10.008   1_554     S
V15     Er20    10.008   1_554     S
V15     Er19    10.008   1_554     S
V16     Er19    10.008   1_564     S
V16     Er20    10.008   1_554     S
Er17     V21    9.984   .     S
Er17     V29    9.984   .     S
Er17     V25    9.984   .     S
Er17     V14    10.008   1_546     S
Er17     V10    10.008   1_546     S
Er17     V11    10.008   1_556     S
Er17     V7    10.008   1_556     S
Er17     V5    10.008   1_556     S
Er17     V13    10.008   1_556     S
Er18     V22    9.984   .     S
Er18     V30    9.984   .     S
Er18     V26    9.984   .     S
Er18     V13    10.008   1_556     S
Er18     V9    10.008   1_556     S
Er18     V12    10.008   1_556     S
Er18     V8    10.008   1_556     S
Er18     V6    10.008   1_556     S
Er18     V14    10.008   1_556     S
Er19     V23    9.984   .     S
Er19     V31    9.984   .     S
Er19     V27    9.984   .     S
Er19     V16    10.008   1_546     S
Er19     V12    10.008   1_546     S
Er19     V9    10.008   1_656     S
Er19     V5    10.008   1_656     S
Er19     V7    10.008   1_556     S
Er19     V15    10.008   1_556     S
Er20     V24    9.984   .     S
Er20     V32    9.984   .     S
Er20     V28    9.984   .     S
Er20     V15    10.008   1_556     S
Er20     V11    10.008   1_556     S
Er20     V10    10.008   1_656     S
Er20     V6    10.008   1_656     S
Er20     V8    10.008   1_556     S
Er20     V16    10.008   1_556     S
V23     Er1    10.008   1_655     S
V24     Er2    10.008   1_655     S
V25     Er2    10.008   1_545     S
V27     Er4    10.008   1_545     S
V27     Er1    10.008   1_655     S
V28     Er2    10.008   1_655     S
V29     Er2    10.008   1_545     S
V31     Er4    10.008   1_545     S
