data_sev
_audit_creation_date              2019-12-31
_audit_creation_method            'Pymatgen'
_symmetry_space_group_name_H-M    'P1'
_symmetry_Int_Tables_number       1
loop_
_symmetry_equiv_pos_as_xyz
  x,y,z
_cell_length_a                    35.2162
_cell_length_b                    25.9588
_cell_length_c                    30.4328
_cell_angle_alpha                 90.0
_cell_angle_beta                 90.0
_cell_angle_gamma                 90.0
loop_
_atom_site_label
_atom_site_type_symbol
_atom_site_fract_x
_atom_site_fract_y
_atom_site_fract_z
V1     V     0.358   0.25   0.25
V2     V     0.358   0.25   0.75
V3     V     0.358   0.75   0.25
V4     V     0.358   0.75   0.75
V5     V     0.142   0.0   0.25
V6     V     0.142   0.0   0.75
V7     V     0.142   0.5   0.25
V8     V     0.142   0.5   0.75
V9     V     0.858   0.0   0.25
V10     V     0.858   0.0   0.75
V11     V     0.858   0.5   0.25
V12     V     0.858   0.5   0.75
V13     V     0.642   0.25   0.25
V14     V     0.642   0.25   0.75
V15     V     0.642   0.75   0.25
V16     V     0.642   0.75   0.75
V17     V     0.358   0.0   0.0
V18     V     0.358   0.0   0.5
V19     V     0.358   0.5   0.0
V20     V     0.358   0.5   0.5
V21     V     0.142   0.25   0.0
V22     V     0.142   0.25   0.5
V23     V     0.142   0.75   0.0
V24     V     0.142   0.75   0.5
V25     V     0.642   0.0   0.0
V26     V     0.642   0.0   0.5
V27     V     0.642   0.5   0.0
V28     V     0.642   0.5   0.5
V29     V     0.858   0.25   0.0
V30     V     0.858   0.25   0.5
V31     V     0.858   0.75   0.0
V32     V     0.858   0.75   0.5
loop_
_geom_bond_atom_site_label_1
_geom_bond_atom_site_label_2
_geom_bond_distance
_geom_bond_site_symmetry_2
_ccdc_geom_bond_type
V1     V5    10.0   .     S
V1     V7    10.0   .     S
V1     V13    10.0   .     S
V1     V17    10.0   .     S
V1     V20    10.0   .     S
V1     V18    10.0   .     S
V1     V19    10.0   .     S
V2     V6    10.0   .     S
V2     V8    10.0   .     S
V2     V14    10.0   .     S
V2     V18    10.0   .     S
V2     V19    10.0   1_556     S
V2     V17    10.0   1_556     S
V2     V20    10.0   .     S
V3     V7    10.0   .     S
V3     V5    10.0   1_565     S
V3     V15    10.0   .     S
V3     V19    10.0   .     S
V3     V18    10.0   1_565     S
V3     V20    10.0   .     S
V3     V17    10.0   1_565     S
V4     V8    10.0   .     S
V4     V6    10.0   1_565     S
V4     V16    10.0   .     S
V4     V20    10.0   .     S
V4     V17    10.0   1_566     S
V4     V19    10.0   1_556     S
V4     V18    10.0   1_565     S
V5     V3    10.0   1_545     S
V5     V9    10.0   1_455     S
V5     V24    10.0   1_545     S
V5     V21    10.0   .     S
V5     V23    10.0   1_545     S
V5     V22    10.0   .     S
V6     V4    10.0   1_545     S
V6     V10    10.0   1_455     S
V6     V23    10.0   1_546     S
V6     V22    10.0   .     S
V6     V24    10.0   1_545     S
V6     V21    10.0   1_556     S
V7     V11    10.0   1_455     S
V7     V22    10.0   .     S
V7     V23    10.0   .     S
V7     V21    10.0   .     S
V7     V24    10.0   .     S
V8     V12    10.0   1_455     S
V8     V21    10.0   1_556     S
V8     V24    10.0   .     S
V8     V22    10.0   .     S
V8     V23    10.0   1_556     S
V9     V15    10.0   1_545     S
V9     V13    10.0   .     S
V9     V5    10.0   1_655     S
V9     V30    10.0   .     S
V9     V31    10.0   1_545     S
V9     V29    10.0   .     S
V9     V32    10.0   1_545     S
V10     V16    10.0   1_545     S
V10     V14    10.0   .     S
V10     V6    10.0   1_655     S
V10     V29    10.0   1_556     S
V10     V32    10.0   1_545     S
V10     V30    10.0   .     S
V10     V31    10.0   1_546     S
V11     V13    10.0   .     S
V11     V15    10.0   .     S
V11     V7    10.0   1_655     S
V11     V32    10.0   .     S
V11     V29    10.0   .     S
V11     V31    10.0   .     S
V11     V30    10.0   .     S
V12     V14    10.0   .     S
V12     V16    10.0   .     S
V12     V8    10.0   1_655     S
V12     V31    10.0   1_556     S
V12     V30    10.0   .     S
V12     V32    10.0   .     S
V12     V29    10.0   1_556     S
V13     V27    10.0   .     S
V13     V26    10.0   .     S
V13     V28    10.0   .     S
V13     V25    10.0   .     S
V14     V28    10.0   .     S
V14     V25    10.0   1_556     S
V14     V27    10.0   1_556     S
V14     V26    10.0   .     S
V15     V9    10.0   1_565     S
V15     V25    10.0   1_565     S
V15     V28    10.0   .     S
V15     V26    10.0   1_565     S
V15     V27    10.0   .     S
V16     V10    10.0   1_565     S
V16     V26    10.0   1_565     S
V16     V27    10.0   1_556     S
V16     V25    10.0   1_566     S
V16     V28    10.0   .     S
V17     V21    10.0   .     S
V17     V23    10.0   1_545     S
V17     V25    10.0   .     S
V17     V4    10.0   1_544     S
V17     V2    10.0   1_554     S
V17     V3    10.0   1_545     S
V18     V22    10.0   .     S
V18     V24    10.0   1_545     S
V18     V26    10.0   .     S
V18     V3    10.0   1_545     S
V18     V4    10.0   1_545     S
V19     V23    10.0   .     S
V19     V21    10.0   .     S
V19     V27    10.0   .     S
V19     V2    10.0   1_554     S
V19     V4    10.0   1_554     S
V20     V24    10.0   .     S
V20     V22    10.0   .     S
V20     V28    10.0   .     S
V21     V29    10.0   1_455     S
V21     V8    10.0   1_554     S
V21     V6    10.0   1_554     S
V22     V30    10.0   1_455     S
V23     V17    10.0   1_565     S
V23     V31    10.0   1_455     S
V23     V6    10.0   1_564     S
V23     V5    10.0   1_565     S
V23     V8    10.0   1_554     S
V24     V18    10.0   1_565     S
V24     V32    10.0   1_455     S
V24     V5    10.0   1_565     S
V24     V6    10.0   1_565     S
V25     V31    10.0   1_545     S
V25     V29    10.0   .     S
V25     V15    10.0   1_545     S
V25     V14    10.0   1_554     S
V25     V16    10.0   1_544     S
V26     V32    10.0   1_545     S
V26     V30    10.0   .     S
V26     V16    10.0   1_545     S
V26     V15    10.0   1_545     S
V27     V29    10.0   .     S
V27     V31    10.0   .     S
V27     V16    10.0   1_554     S
V27     V14    10.0   1_554     S
V28     V30    10.0   .     S
V28     V32    10.0   .     S
V29     V21    10.0   1_655     S
V29     V10    10.0   1_554     S
V29     V12    10.0   1_554     S
V30     V22    10.0   1_655     S
V31     V25    10.0   1_565     S
V31     V23    10.0   1_655     S
V31     V12    10.0   1_554     S
V31     V9    10.0   1_565     S
V31     V10    10.0   1_564     S
V32     V26    10.0   1_565     S
V32     V24    10.0   1_655     S
V32     V10    10.0   1_565     S
V32     V9    10.0   1_565     S
