data_shp
_audit_creation_date              2019-12-31
_audit_creation_method            'Pymatgen'
_symmetry_space_group_name_H-M    'P1'
_symmetry_Int_Tables_number       1
loop_
_symmetry_equiv_pos_as_xyz
  x,y,z
_cell_length_a                    32.6594
_cell_length_b                    32.6594
_cell_length_c                    23.0948
_cell_angle_alpha                 90.0
_cell_angle_beta                 90.0
_cell_angle_gamma                 120.0
loop_
_atom_site_label
_atom_site_type_symbol
_atom_site_fract_x
_atom_site_fract_y
_atom_site_fract_z
V1     V     1.0   0.25   0.0
V2     V     1.0   0.25   0.5
V3     V     1.0   0.75   0.0
V4     V     1.0   0.75   0.5
V5     V     0.5   0.25   0.0
V6     V     0.5   0.25   0.5
V7     V     0.5   0.75   0.0
V8     V     0.5   0.75   0.5
V9     V     0.25   0.0   0.0
V10     V     0.25   0.0   0.5
V11     V     0.25   0.5   0.0
V12     V     0.25   0.5   0.5
V13     V     0.75   0.0   0.0
V14     V     0.75   0.0   0.5
V15     V     0.75   0.5   0.0
V16     V     0.75   0.5   0.5
V17     V     0.25   0.25   0.0
V18     V     0.25   0.25   0.5
V19     V     0.25   0.75   0.0
V20     V     0.25   0.75   0.5
V21     V     0.75   0.25   0.0
V22     V     0.75   0.25   0.5
V23     V     0.75   0.75   0.0
V24     V     0.75   0.75   0.5
Er25     Er     0.0   0.0   0.25
Er26     Er     0.0   0.0   0.75
Er27     Er     1.0   0.5   0.25
Er28     Er     1.0   0.5   0.75
Er29     Er     0.5   0.0   0.25
Er30     Er     0.5   0.0   0.75
Er31     Er     0.5   0.5   0.25
Er32     Er     0.5   0.5   0.75
loop_
_geom_bond_atom_site_label_1
_geom_bond_atom_site_label_2
_geom_bond_distance
_geom_bond_site_symmetry_2
_ccdc_geom_bond_type
V1     Er26    10.0   1_654     S
V1     Er28    10.0   1_554     S
V1     Er25    10.0   1_655     S
V1     Er27    10.0   .     S
V2     Er25    10.0   1_655     S
V2     Er27    10.0   .     S
V2     Er26    10.0   1_655     S
V2     Er28    10.0   .     S
V3     Er28    10.0   1_554     S
V3     Er26    10.0   1_664     S
V3     Er27    10.0   .     S
V3     Er25    10.0   1_665     S
V4     Er27    10.0   .     S
V4     Er25    10.0   1_665     S
V4     Er28    10.0   .     S
V4     Er26    10.0   1_665     S
V5     Er30    10.0   1_554     S
V5     Er32    10.0   1_554     S
V5     Er29    10.0   .     S
V5     Er31    10.0   .     S
V6     Er29    10.0   .     S
V6     Er31    10.0   .     S
V6     Er30    10.0   .     S
V6     Er32    10.0   .     S
V7     Er32    10.0   1_554     S
V7     Er30    10.0   1_564     S
V7     Er31    10.0   .     S
V7     Er29    10.0   1_565     S
V8     Er31    10.0   .     S
V8     Er29    10.0   1_565     S
V8     Er32    10.0   .     S
V8     Er30    10.0   1_565     S
V9     Er26    10.0   1_554     S
V9     Er30    10.0   1_554     S
V9     Er25    10.0   .     S
V9     Er29    10.0   .     S
V10     Er25    10.0   .     S
V10     Er29    10.0   .     S
V10     Er26    10.0   .     S
V10     Er30    10.0   .     S
V11     Er28    10.0   1_454     S
V11     Er32    10.0   1_554     S
V11     Er27    10.0   1_455     S
V11     Er31    10.0   .     S
V12     Er27    10.0   1_455     S
V12     Er31    10.0   .     S
V12     Er28    10.0   1_455     S
V12     Er32    10.0   .     S
V13     Er30    10.0   1_554     S
V13     Er26    10.0   1_654     S
V13     Er29    10.0   .     S
V13     Er25    10.0   1_655     S
V14     Er29    10.0   .     S
V14     Er25    10.0   1_655     S
V14     Er30    10.0   .     S
V14     Er26    10.0   1_655     S
V15     Er32    10.0   1_554     S
V15     Er28    10.0   1_554     S
V15     Er31    10.0   .     S
V15     Er27    10.0   .     S
V16     Er31    10.0   .     S
V16     Er27    10.0   .     S
V16     Er32    10.0   .     S
V16     Er28    10.0   .     S
V17     Er26    10.0   1_554     S
V17     Er32    10.0   1_554     S
V17     Er25    10.0   .     S
V17     Er31    10.0   .     S
V18     Er25    10.0   .     S
V18     Er31    10.0   .     S
V18     Er26    10.0   .     S
V18     Er32    10.0   .     S
V19     Er28    10.0   1_454     S
V19     Er30    10.0   1_564     S
V19     Er27    10.0   1_455     S
V19     Er29    10.0   1_565     S
V20     Er27    10.0   1_455     S
V20     Er29    10.0   1_565     S
V20     Er28    10.0   1_455     S
V20     Er30    10.0   1_565     S
V21     Er30    10.0   1_554     S
V21     Er28    10.0   1_554     S
V21     Er29    10.0   .     S
V21     Er27    10.0   .     S
V22     Er29    10.0   .     S
V22     Er27    10.0   .     S
V22     Er30    10.0   .     S
V22     Er28    10.0   .     S
V23     Er32    10.0   1_554     S
V23     Er26    10.0   1_664     S
V23     Er31    10.0   .     S
V23     Er25    10.0   1_665     S
V24     Er31    10.0   .     S
V24     Er25    10.0   1_665     S
V24     Er32    10.0   .     S
V24     Er26    10.0   1_665     S
Er25     V2    10.0   1_455     S
Er25     V14    10.0   1_455     S
Er25     V24    10.0   1_445     S
Er25     V4    10.0   1_445     S
Er25     V1    10.0   1_455     S
Er25     V13    10.0   1_455     S
Er25     V23    10.0   1_445     S
Er25     V3    10.0   1_445     S
Er26     V9    10.0   1_556     S
Er26     V17    10.0   1_556     S
Er26     V1    10.0   1_456     S
Er26     V13    10.0   1_456     S
Er26     V23    10.0   1_446     S
Er26     V3    10.0   1_446     S
Er26     V2    10.0   1_455     S
Er26     V14    10.0   1_455     S
Er26     V24    10.0   1_445     S
Er26     V4    10.0   1_445     S
Er27     V12    10.0   1_655     S
Er27     V20    10.0   1_655     S
Er27     V19    10.0   1_655     S
Er27     V11    10.0   1_655     S
Er28     V11    10.0   1_656     S
Er28     V19    10.0   1_656     S
Er28     V3    10.0   1_556     S
Er28     V15    10.0   1_556     S
Er28     V21    10.0   1_556     S
Er28     V1    10.0   1_556     S
Er28     V20    10.0   1_655     S
Er28     V12    10.0   1_655     S
Er29     V20    10.0   1_545     S
Er29     V8    10.0   1_545     S
Er29     V19    10.0   1_545     S
Er29     V7    10.0   1_545     S
Er30     V13    10.0   1_556     S
Er30     V21    10.0   1_556     S
Er30     V5    10.0   1_556     S
Er30     V9    10.0   1_556     S
Er30     V19    10.0   1_546     S
Er30     V7    10.0   1_546     S
Er30     V20    10.0   1_545     S
Er30     V8    10.0   1_545     S
Er32     V15    10.0   1_556     S
Er32     V23    10.0   1_556     S
Er32     V7    10.0   1_556     S
Er32     V11    10.0   1_556     S
Er32     V17    10.0   1_556     S
Er32     V5    10.0   1_556     S
