data_shy
_audit_creation_date              2019-12-31
_audit_creation_method            'Pymatgen'
_symmetry_space_group_name_H-M    'P1'
_symmetry_Int_Tables_number       1
loop_
_symmetry_equiv_pos_as_xyz
  x,y,z
_cell_length_a                    32.3636
_cell_length_b                    32.3636
_cell_length_c                    32.3636
_cell_angle_alpha                 90.0
_cell_angle_beta                 90.0
_cell_angle_gamma                 90.0
loop_
_atom_site_label
_atom_site_type_symbol
_atom_site_fract_x
_atom_site_fract_y
_atom_site_fract_z
V1     V     0.25   0.0   0.1544
V2     V     0.25   0.0   0.6544
V3     V     0.25   0.5   0.1544
V4     V     0.25   0.5   0.6544
V5     V     0.75   0.0   0.1544
V6     V     0.75   0.0   0.6544
V7     V     0.75   0.5   0.1544
V8     V     0.75   0.5   0.6544
V9     V     0.25   0.0   0.3456
V10     V     0.25   0.0   0.8456
V11     V     0.25   0.5   0.3456
V12     V     0.25   0.5   0.8456
V13     V     0.75   0.0   0.3456
V14     V     0.75   0.0   0.8456
V15     V     0.75   0.5   0.3456
V16     V     0.75   0.5   0.8456
V17     V     0.0   0.1544   0.25
V18     V     0.0   0.1544   0.75
V19     V     0.0   0.6544   0.25
V20     V     0.0   0.6544   0.75
V21     V     0.5   0.1544   0.25
V22     V     0.5   0.1544   0.75
V23     V     0.5   0.6544   0.25
V24     V     0.5   0.6544   0.75
V25     V     0.0   0.3456   0.25
V26     V     0.0   0.3456   0.75
V27     V     0.0   0.8456   0.25
V28     V     0.0   0.8456   0.75
V29     V     0.5   0.3456   0.25
V30     V     0.5   0.3456   0.75
V31     V     0.5   0.8456   0.25
V32     V     0.5   0.8456   0.75
V33     V     0.1544   0.25   0.0
V34     V     0.1544   0.25   0.5
V35     V     0.1544   0.75   0.0
V36     V     0.1544   0.75   0.5
V37     V     0.6544   0.25   0.0
V38     V     0.6544   0.25   0.5
V39     V     0.6544   0.75   0.0
V40     V     0.6544   0.75   0.5
V41     V     0.3456   0.25   0.0
V42     V     0.3456   0.25   0.5
V43     V     0.3456   0.75   0.0
V44     V     0.3456   0.75   0.5
V45     V     0.8456   0.25   0.0
V46     V     0.8456   0.25   0.5
V47     V     0.8456   0.75   0.0
V48     V     0.8456   0.75   0.5
loop_
_geom_bond_atom_site_label_1
_geom_bond_atom_site_label_2
_geom_bond_distance
_geom_bond_site_symmetry_2
_ccdc_geom_bond_type
V1     V33    10.0   .     S
V1     V41    10.0   .     S
V1     V10    9.996   1_554     S
V1     V43    10.0   1_545     S
V1     V35    10.0   1_545     S
V1     V17    10.0   .     S
V1     V27    10.0   1_545     S
V1     V31    10.0   1_545     S
V1     V21    10.0   .     S
V2     V34    10.0   .     S
V2     V42    10.0   .     S
V2     V9    9.996   .     S
V2     V44    10.0   1_545     S
V2     V36    10.0   1_545     S
V2     V18    10.0   .     S
V2     V28    10.0   1_545     S
V2     V32    10.0   1_545     S
V2     V22    10.0   .     S
V3     V35    10.0   .     S
V3     V43    10.0   .     S
V3     V12    9.996   1_554     S
V3     V41    10.0   .     S
V3     V33    10.0   .     S
V3     V19    10.0   .     S
V3     V25    10.0   .     S
V3     V29    10.0   .     S
V3     V23    10.0   .     S
V4     V36    10.0   .     S
V4     V44    10.0   .     S
V4     V11    9.996   .     S
V4     V42    10.0   .     S
V4     V34    10.0   .     S
V4     V20    10.0   .     S
V4     V26    10.0   .     S
V4     V30    10.0   .     S
V4     V24    10.0   .     S
V5     V37    10.0   .     S
V5     V45    10.0   .     S
V5     V14    9.996   1_554     S
V5     V47    10.0   1_545     S
V5     V39    10.0   1_545     S
V5     V21    10.0   .     S
V5     V31    10.0   1_545     S
V5     V27    10.0   1_645     S
V5     V17    10.0   1_655     S
V6     V38    10.0   .     S
V6     V46    10.0   .     S
V6     V13    9.996   .     S
V6     V48    10.0   1_545     S
V6     V40    10.0   1_545     S
V6     V22    10.0   .     S
V6     V32    10.0   1_545     S
V6     V28    10.0   1_645     S
V6     V18    10.0   1_655     S
V7     V39    10.0   .     S
V7     V47    10.0   .     S
V7     V16    9.996   1_554     S
V7     V45    10.0   .     S
V7     V37    10.0   .     S
V7     V23    10.0   .     S
V7     V29    10.0   .     S
V7     V25    10.0   1_655     S
V7     V19    10.0   1_655     S
V8     V40    10.0   .     S
V8     V48    10.0   .     S
V8     V15    9.996   .     S
V8     V46    10.0   .     S
V8     V38    10.0   .     S
V8     V24    10.0   .     S
V8     V30    10.0   .     S
V8     V26    10.0   1_655     S
V8     V20    10.0   1_655     S
V9     V42    10.0   .     S
V9     V34    10.0   .     S
V9     V36    10.0   1_545     S
V9     V44    10.0   1_545     S
V9     V17    10.0   .     S
V9     V27    10.0   1_545     S
V9     V31    10.0   1_545     S
V9     V21    10.0   .     S
V10     V41    10.0   1_556     S
V10     V33    10.0   1_556     S
V10     V1    9.996   1_556     S
V10     V35    10.0   1_546     S
V10     V43    10.0   1_546     S
V10     V18    10.0   .     S
V10     V28    10.0   1_545     S
V10     V32    10.0   1_545     S
V10     V22    10.0   .     S
V11     V44    10.0   .     S
V11     V36    10.0   .     S
V11     V34    10.0   .     S
V11     V42    10.0   .     S
V11     V19    10.0   .     S
V11     V25    10.0   .     S
V11     V29    10.0   .     S
V11     V23    10.0   .     S
V12     V43    10.0   1_556     S
V12     V35    10.0   1_556     S
V12     V3    9.996   1_556     S
V12     V33    10.0   1_556     S
V12     V41    10.0   1_556     S
V12     V20    10.0   .     S
V12     V26    10.0   .     S
V12     V30    10.0   .     S
V12     V24    10.0   .     S
V13     V46    10.0   .     S
V13     V38    10.0   .     S
V13     V40    10.0   1_545     S
V13     V48    10.0   1_545     S
V13     V21    10.0   .     S
V13     V31    10.0   1_545     S
V13     V27    10.0   1_645     S
V13     V17    10.0   1_655     S
V14     V45    10.0   1_556     S
V14     V37    10.0   1_556     S
V14     V5    9.996   1_556     S
V14     V39    10.0   1_546     S
V14     V47    10.0   1_546     S
V14     V22    10.0   .     S
V14     V32    10.0   1_545     S
V14     V28    10.0   1_645     S
V14     V18    10.0   1_655     S
V15     V48    10.0   .     S
V15     V40    10.0   .     S
V15     V38    10.0   .     S
V15     V46    10.0   .     S
V15     V23    10.0   .     S
V15     V29    10.0   .     S
V15     V25    10.0   1_655     S
V15     V19    10.0   1_655     S
V16     V47    10.0   1_556     S
V16     V39    10.0   1_556     S
V16     V7    9.996   1_556     S
V16     V37    10.0   1_556     S
V16     V45    10.0   1_556     S
V16     V24    10.0   .     S
V16     V30    10.0   .     S
V16     V26    10.0   1_655     S
V16     V20    10.0   1_655     S
V17     V27    9.996   1_545     S
V17     V13    10.0   1_455     S
V17     V5    10.0   1_455     S
V17     V45    10.0   1_455     S
V17     V33    10.0   .     S
V17     V34    10.0   .     S
V17     V46    10.0   1_455     S
V18     V28    9.996   1_545     S
V18     V14    10.0   1_455     S
V18     V6    10.0   1_455     S
V18     V46    10.0   1_455     S
V18     V34    10.0   .     S
V18     V33    10.0   1_556     S
V18     V45    10.0   1_456     S
V19     V25    9.996   .     S
V19     V15    10.0   1_455     S
V19     V7    10.0   1_455     S
V19     V47    10.0   1_455     S
V19     V35    10.0   .     S
V19     V36    10.0   .     S
V19     V48    10.0   1_455     S
V20     V26    9.996   .     S
V20     V16    10.0   1_455     S
V20     V8    10.0   1_455     S
V20     V48    10.0   1_455     S
V20     V36    10.0   .     S
V20     V35    10.0   1_556     S
V20     V47    10.0   1_456     S
V21     V31    9.996   1_545     S
V21     V41    10.0   .     S
V21     V37    10.0   .     S
V21     V38    10.0   .     S
V21     V42    10.0   .     S
V22     V32    9.996   1_545     S
V22     V42    10.0   .     S
V22     V38    10.0   .     S
V22     V37    10.0   1_556     S
V22     V41    10.0   1_556     S
V23     V29    9.996   .     S
V23     V43    10.0   .     S
V23     V39    10.0   .     S
V23     V40    10.0   .     S
V23     V44    10.0   .     S
V24     V30    9.996   .     S
V24     V44    10.0   .     S
V24     V40    10.0   .     S
V24     V39    10.0   1_556     S
V24     V43    10.0   1_556     S
V25     V7    10.0   1_455     S
V25     V15    10.0   1_455     S
V25     V45    10.0   1_455     S
V25     V33    10.0   .     S
V25     V34    10.0   .     S
V25     V46    10.0   1_455     S
V26     V8    10.0   1_455     S
V26     V16    10.0   1_455     S
V26     V46    10.0   1_455     S
V26     V34    10.0   .     S
V26     V33    10.0   1_556     S
V26     V45    10.0   1_456     S
V27     V9    10.0   1_565     S
V27     V1    10.0   1_565     S
V27     V17    9.996   1_565     S
V27     V5    10.0   1_465     S
V27     V13    10.0   1_465     S
V27     V47    10.0   1_455     S
V27     V35    10.0   .     S
V27     V36    10.0   .     S
V27     V48    10.0   1_455     S
V28     V10    10.0   1_565     S
V28     V2    10.0   1_565     S
V28     V18    9.996   1_565     S
V28     V6    10.0   1_465     S
V28     V14    10.0   1_465     S
V28     V48    10.0   1_455     S
V28     V36    10.0   .     S
V28     V35    10.0   1_556     S
V28     V47    10.0   1_456     S
V29     V41    10.0   .     S
V29     V37    10.0   .     S
V29     V38    10.0   .     S
V29     V42    10.0   .     S
V30     V42    10.0   .     S
V30     V38    10.0   .     S
V30     V37    10.0   1_556     S
V30     V41    10.0   1_556     S
V31     V13    10.0   1_565     S
V31     V5    10.0   1_565     S
V31     V21    9.996   1_565     S
V31     V1    10.0   1_565     S
V31     V9    10.0   1_565     S
V31     V43    10.0   .     S
V31     V39    10.0   .     S
V31     V40    10.0   .     S
V31     V44    10.0   .     S
V32     V14    10.0   1_565     S
V32     V6    10.0   1_565     S
V32     V22    9.996   1_565     S
V32     V2    10.0   1_565     S
V32     V10    10.0   1_565     S
V32     V44    10.0   .     S
V32     V40    10.0   .     S
V32     V39    10.0   1_556     S
V32     V43    10.0   1_556     S
V33     V10    10.0   1_554     S
V33     V12    10.0   1_554     S
V33     V45    9.996   1_455     S
V33     V26    10.0   1_554     S
V33     V18    10.0   1_554     S
V34     V46    9.996   1_455     S
V35     V12    10.0   1_554     S
V35     V10    10.0   1_564     S
V35     V1    10.0   1_565     S
V35     V47    9.996   1_455     S
V35     V28    10.0   1_554     S
V35     V20    10.0   1_554     S
V36     V9    10.0   1_565     S
V36     V2    10.0   1_565     S
V36     V48    9.996   1_455     S
V37     V14    10.0   1_554     S
V37     V16    10.0   1_554     S
V37     V41    9.996   .     S
V37     V30    10.0   1_554     S
V37     V22    10.0   1_554     S
V38     V42    9.996   .     S
V39     V16    10.0   1_554     S
V39     V14    10.0   1_564     S
V39     V5    10.0   1_565     S
V39     V43    9.996   .     S
V39     V32    10.0   1_554     S
V39     V24    10.0   1_554     S
V40     V13    10.0   1_565     S
V40     V6    10.0   1_565     S
V40     V44    9.996   .     S
V41     V10    10.0   1_554     S
V41     V12    10.0   1_554     S
V41     V22    10.0   1_554     S
V41     V30    10.0   1_554     S
V43     V12    10.0   1_554     S
V43     V10    10.0   1_564     S
V43     V1    10.0   1_565     S
V43     V24    10.0   1_554     S
V43     V32    10.0   1_554     S
V44     V9    10.0   1_565     S
V44     V2    10.0   1_565     S
V45     V14    10.0   1_554     S
V45     V16    10.0   1_554     S
V45     V25    10.0   1_655     S
V45     V17    10.0   1_655     S
V45     V33    9.996   1_655     S
V45     V18    10.0   1_654     S
V45     V26    10.0   1_654     S
V46     V26    10.0   1_655     S
V46     V18    10.0   1_655     S
V46     V34    9.996   1_655     S
V46     V17    10.0   1_655     S
V46     V25    10.0   1_655     S
V47     V16    10.0   1_554     S
V47     V14    10.0   1_564     S
V47     V5    10.0   1_565     S
V47     V27    10.0   1_655     S
V47     V19    10.0   1_655     S
V47     V35    9.996   1_655     S
V47     V20    10.0   1_654     S
V47     V28    10.0   1_654     S
V48     V13    10.0   1_565     S
V48     V6    10.0   1_565     S
V48     V28    10.0   1_655     S
V48     V20    10.0   1_655     S
V48     V36    9.996   1_655     S
V48     V19    10.0   1_655     S
V48     V27    10.0   1_655     S
