data_ska
_audit_creation_date              2019-12-31
_audit_creation_method            'Pymatgen'
_symmetry_space_group_name_H-M    'P1'
_symmetry_Int_Tables_number       1
loop_
_symmetry_equiv_pos_as_xyz
  x,y,z
_cell_length_a                    30.0003
_cell_length_b                    32.1184
_cell_length_c                    26.7903
_cell_angle_alpha                 90.0
_cell_angle_beta                 90.0
_cell_angle_gamma                 90.0
loop_
_atom_site_label
_atom_site_type_symbol
_atom_site_fract_x
_atom_site_fract_y
_atom_site_fract_z
V1     V     0.1667   0.3629   0.0884
V2     V     0.5   0.3629   0.0884
V3     V     0.8333   0.3629   0.0884
V4     V     0.0   0.1371   0.9116
V5     V     0.3333   0.1371   0.9116
V6     V     0.6667   0.1371   0.9116
V7     V     0.0   0.3629   0.4116
V8     V     0.3333   0.3629   0.4116
V9     V     0.6667   0.3629   0.4116
V10     V     0.1667   0.1371   0.5884
V11     V     0.5   0.1371   0.5884
V12     V     0.8333   0.1371   0.5884
V13     V     0.0   0.6371   0.5884
V14     V     0.3333   0.6371   0.5884
V15     V     0.6667   0.6371   0.5884
V16     V     0.1667   0.8629   0.4116
V17     V     0.5   0.8629   0.4116
V18     V     0.8333   0.8629   0.4116
V19     V     0.1667   0.6371   0.9116
V20     V     0.5   0.6371   0.9116
V21     V     0.8333   0.6371   0.9116
V22     V     0.0   0.8629   0.0884
V23     V     0.3333   0.8629   0.0884
V24     V     0.6667   0.8629   0.0884
loop_
_geom_bond_atom_site_label_1
_geom_bond_atom_site_label_2
_geom_bond_distance
_geom_bond_site_symmetry_2
_ccdc_geom_bond_type
V1     V4    10.0   1_554     S
V1     V5    10.0   1_554     S
V1     V3    10.0   1_455     S
V1     V2    10.0   .     S
V1     V7    10.0   .     S
V1     V8    10.0   .     S
V1     V19    10.0   1_554     S
V2     V5    10.0   1_554     S
V2     V6    10.0   1_554     S
V2     V3    10.0   .     S
V2     V8    10.0   .     S
V2     V9    10.0   .     S
V2     V20    10.0   1_554     S
V3     V6    10.0   1_554     S
V3     V4    10.0   1_654     S
V3     V1    10.0   1_655     S
V3     V9    10.0   .     S
V3     V7    10.0   1_655     S
V3     V21    10.0   1_554     S
V4     V1    10.0   1_556     S
V4     V3    10.0   1_456     S
V4     V5    10.0   .     S
V4     V6    10.0   1_455     S
V4     V12    10.0   1_455     S
V4     V10    10.0   .     S
V4     V22    10.0   1_546     S
V5     V2    10.0   1_556     S
V5     V1    10.0   1_556     S
V5     V6    10.0   .     S
V5     V10    10.0   .     S
V5     V11    10.0   .     S
V5     V23    10.0   1_546     S
V6     V3    10.0   1_556     S
V6     V2    10.0   1_556     S
V6     V4    10.0   1_655     S
V6     V11    10.0   .     S
V6     V12    10.0   .     S
V6     V24    10.0   1_546     S
V7     V10    10.0   .     S
V7     V12    10.0   1_455     S
V7     V8    10.0   .     S
V7     V9    10.0   1_455     S
V7     V3    10.0   1_455     S
V7     V13    10.0   .     S
V8     V11    10.0   .     S
V8     V10    10.0   .     S
V8     V9    10.0   .     S
V8     V14    10.0   .     S
V9     V12    10.0   .     S
V9     V11    10.0   .     S
V9     V7    10.0   1_655     S
V9     V15    10.0   .     S
V10     V12    10.0   1_455     S
V10     V11    10.0   .     S
V10     V16    10.0   1_545     S
V11     V12    10.0   .     S
V11     V17    10.0   1_545     S
V12     V7    10.0   1_655     S
V12     V10    10.0   1_655     S
V12     V4    10.0   1_655     S
V12     V18    10.0   1_545     S
V13     V16    10.0   .     S
V13     V18    10.0   1_455     S
V13     V14    10.0   .     S
V13     V15    10.0   1_455     S
V13     V19    10.0   .     S
V13     V21    10.0   1_455     S
V14     V17    10.0   .     S
V14     V16    10.0   .     S
V14     V15    10.0   .     S
V14     V20    10.0   .     S
V14     V19    10.0   .     S
V15     V18    10.0   .     S
V15     V17    10.0   .     S
V15     V13    10.0   1_655     S
V15     V21    10.0   .     S
V15     V20    10.0   .     S
V16     V18    10.0   1_455     S
V16     V17    10.0   .     S
V16     V23    10.0   .     S
V16     V22    10.0   .     S
V16     V10    10.0   1_565     S
V17     V18    10.0   .     S
V17     V24    10.0   .     S
V17     V23    10.0   .     S
V17     V11    10.0   1_565     S
V18     V13    10.0   1_655     S
V18     V16    10.0   1_655     S
V18     V22    10.0   1_655     S
V18     V24    10.0   .     S
V18     V12    10.0   1_565     S
V19     V22    10.0   1_556     S
V19     V23    10.0   1_556     S
V19     V21    10.0   1_455     S
V19     V20    10.0   .     S
V19     V1    10.0   1_556     S
V20     V23    10.0   1_556     S
V20     V24    10.0   1_556     S
V20     V21    10.0   .     S
V20     V2    10.0   1_556     S
V21     V13    10.0   1_655     S
V21     V24    10.0   1_556     S
V21     V22    10.0   1_656     S
V21     V19    10.0   1_655     S
V21     V3    10.0   1_556     S
V22     V4    10.0   1_564     S
V22     V19    10.0   1_554     S
V22     V21    10.0   1_454     S
V22     V23    10.0   .     S
V22     V24    10.0   1_455     S
V22     V18    10.0   1_455     S
V23     V5    10.0   1_564     S
V23     V20    10.0   1_554     S
V23     V19    10.0   1_554     S
V23     V24    10.0   .     S
V24     V6    10.0   1_564     S
V24     V21    10.0   1_554     S
V24     V20    10.0   1_554     S
V24     V22    10.0   1_655     S
