data_skd
_audit_creation_date              2019-12-31
_audit_creation_method            'Pymatgen'
_symmetry_space_group_name_H-M    'P1'
_symmetry_Int_Tables_number       1
loop_
_symmetry_equiv_pos_as_xyz
  x,y,z
_cell_length_a                    33.6579
_cell_length_b                    29.9997
_cell_length_c                    31.9311
_cell_angle_alpha                 90.0
_cell_angle_beta                 90.0
_cell_angle_gamma                 90.0
loop_
_atom_site_label
_atom_site_type_symbol
_atom_site_fract_x
_atom_site_fract_y
_atom_site_fract_z
V1     V     0.8514   0.0833   0.6356
V2     V     0.8514   0.4167   0.6356
V3     V     0.8514   0.75   0.6356
V4     V     0.1485   0.0833   0.6356
V5     V     0.1485   0.4167   0.6356
V6     V     0.1485   0.75   0.6356
V7     V     0.8514   0.25   0.3644
V8     V     0.8514   0.5833   0.3644
V9     V     0.8514   0.9167   0.3644
V10     V     0.1485   0.25   0.3644
V11     V     0.1485   0.5833   0.3644
V12     V     0.1485   0.9167   0.3644
V13     V     0.6486   0.0833   0.8644
V14     V     0.6486   0.4167   0.8644
V15     V     0.6486   0.75   0.8644
V16     V     0.3514   0.0833   0.8644
V17     V     0.3514   0.4167   0.8644
V18     V     0.3514   0.75   0.8644
V19     V     0.6486   0.25   0.1356
V20     V     0.6486   0.5833   0.1356
V21     V     0.6486   0.9167   0.1356
V22     V     0.3514   0.25   0.1356
V23     V     0.3514   0.5833   0.1356
V24     V     0.3514   0.9167   0.1356
loop_
_geom_bond_atom_site_label_1
_geom_bond_atom_site_label_2
_geom_bond_distance
_geom_bond_site_symmetry_2
_ccdc_geom_bond_type
V1     V4    10.0   1_655     S
V1     V2    10.0   .     S
V1     V3    10.0   1_545     S
V1     V7    10.0   .     S
V1     V9    10.0   1_545     S
V1     V13    10.0   .     S
V2     V5    10.0   1_655     S
V2     V3    10.0   .     S
V2     V8    10.0   .     S
V2     V7    10.0   .     S
V2     V14    10.0   .     S
V3     V6    10.0   1_655     S
V3     V1    10.0   1_565     S
V3     V9    10.0   .     S
V3     V8    10.0   .     S
V3     V15    10.0   .     S
V4     V1    10.0   1_455     S
V4     V5    10.0   .     S
V4     V6    10.0   1_545     S
V4     V12    10.0   1_545     S
V4     V10    10.0   .     S
V4     V16    10.0   .     S
V5     V2    10.0   1_455     S
V5     V6    10.0   .     S
V5     V10    10.0   .     S
V5     V11    10.0   .     S
V5     V17    10.0   .     S
V6     V3    10.0   1_455     S
V6     V4    10.0   1_565     S
V6     V11    10.0   .     S
V6     V12    10.0   .     S
V6     V18    10.0   .     S
V7     V10    10.0   1_655     S
V7     V9    10.0   1_545     S
V7     V8    10.0   .     S
V7     V19    10.0   .     S
V8     V11    10.0   1_655     S
V8     V9    10.0   .     S
V8     V20    10.0   .     S
V9     V1    10.0   1_565     S
V9     V12    10.0   1_655     S
V9     V7    10.0   1_565     S
V9     V21    10.0   .     S
V10     V7    10.0   1_455     S
V10     V12    10.0   1_545     S
V10     V11    10.0   .     S
V10     V22    10.0   .     S
V11     V8    10.0   1_455     S
V11     V12    10.0   .     S
V11     V23    10.0   .     S
V12     V4    10.0   1_565     S
V12     V9    10.0   1_455     S
V12     V10    10.0   1_565     S
V12     V24    10.0   .     S
V13     V16    10.0   .     S
V13     V14    10.0   .     S
V13     V15    10.0   1_545     S
V13     V19    10.0   1_556     S
V13     V21    10.0   1_546     S
V14     V17    10.0   .     S
V14     V15    10.0   .     S
V14     V20    10.0   1_556     S
V14     V19    10.0   1_556     S
V15     V18    10.0   .     S
V15     V13    10.0   1_565     S
V15     V21    10.0   1_556     S
V15     V20    10.0   1_556     S
V16     V17    10.0   .     S
V16     V18    10.0   1_545     S
V16     V24    10.0   1_546     S
V16     V22    10.0   1_556     S
V17     V18    10.0   .     S
V17     V22    10.0   1_556     S
V17     V23    10.0   1_556     S
V18     V16    10.0   1_565     S
V18     V23    10.0   1_556     S
V18     V24    10.0   1_556     S
V19     V13    10.0   1_554     S
V19     V14    10.0   1_554     S
V19     V22    10.0   .     S
V19     V21    10.0   1_545     S
V19     V20    10.0   .     S
V20     V14    10.0   1_554     S
V20     V15    10.0   1_554     S
V20     V23    10.0   .     S
V20     V21    10.0   .     S
V21     V15    10.0   1_554     S
V21     V13    10.0   1_564     S
V21     V24    10.0   .     S
V21     V19    10.0   1_565     S
V22     V17    10.0   1_554     S
V22     V16    10.0   1_554     S
V22     V24    10.0   1_545     S
V22     V23    10.0   .     S
V23     V18    10.0   1_554     S
V23     V17    10.0   1_554     S
V23     V24    10.0   .     S
V24     V16    10.0   1_564     S
V24     V18    10.0   1_554     S
V24     V22    10.0   1_565     S
