data_skh
_audit_creation_date              2019-12-31
_audit_creation_method            'Pymatgen'
_symmetry_space_group_name_H-M    'P1'
_symmetry_Int_Tables_number       1
loop_
_symmetry_equiv_pos_as_xyz
  x,y,z
_cell_length_a                    64.7164
_cell_length_b                    30.3344
_cell_length_c                    26.073
_cell_angle_alpha                 90.0
_cell_angle_beta                 90.0
_cell_angle_gamma                 90.0
loop_
_atom_site_label
_atom_site_type_symbol
_atom_site_fract_x
_atom_site_fract_y
_atom_site_fract_z
V1     V     0.8081   0.2663   0.125
V2     V     0.8081   0.2663   0.625
V3     V     0.8081   0.7663   0.125
V4     V     0.8081   0.7663   0.625
V5     V     0.6919   0.4837   0.125
V6     V     0.6919   0.4837   0.625
V7     V     0.6919   0.9837   0.125
V8     V     0.6919   0.9837   0.625
V9     V     0.6919   0.2337   0.375
V10     V     0.6919   0.2337   0.875
V11     V     0.6919   0.7337   0.375
V12     V     0.6919   0.7337   0.875
V13     V     0.8081   0.0163   0.375
V14     V     0.8081   0.0163   0.875
V15     V     0.8081   0.5163   0.375
V16     V     0.8081   0.5163   0.875
V17     V     0.4419   0.1413   0.0
V18     V     0.4419   0.1413   0.5
V19     V     0.4419   0.6413   0.0
V20     V     0.4419   0.6413   0.5
V21     V     0.5581   0.3587   0.0
V22     V     0.5581   0.3587   0.5
V23     V     0.5581   0.8587   0.0
V24     V     0.5581   0.8587   0.5
V25     V     0.4419   0.3913   0.25
V26     V     0.4419   0.3913   0.75
V27     V     0.4419   0.8913   0.25
V28     V     0.4419   0.8913   0.75
V29     V     0.5581   0.1087   0.25
V30     V     0.5581   0.1087   0.75
V31     V     0.5581   0.6087   0.25
V32     V     0.5581   0.6087   0.75
V33     V     0.3081   0.2663   0.375
V34     V     0.3081   0.2663   0.875
V35     V     0.3081   0.7663   0.375
V36     V     0.3081   0.7663   0.875
V37     V     0.1919   0.4837   0.375
V38     V     0.1919   0.4837   0.875
V39     V     0.1919   0.9837   0.375
V40     V     0.1919   0.9837   0.875
V41     V     0.1919   0.2337   0.125
V42     V     0.1919   0.2337   0.625
V43     V     0.1919   0.7337   0.125
V44     V     0.1919   0.7337   0.625
V45     V     0.3081   0.0163   0.125
V46     V     0.3081   0.0163   0.625
V47     V     0.3081   0.5163   0.125
V48     V     0.3081   0.5163   0.625
V49     V     0.9419   0.1413   0.25
V50     V     0.9419   0.1413   0.75
V51     V     0.9419   0.6413   0.25
V52     V     0.9419   0.6413   0.75
V53     V     0.0581   0.3587   0.25
V54     V     0.0581   0.3587   0.75
V55     V     0.0581   0.8587   0.25
V56     V     0.0581   0.8587   0.75
V57     V     0.9419   0.3913   0.0
V58     V     0.9419   0.3913   0.5
V59     V     0.9419   0.8913   0.0
V60     V     0.9419   0.8913   0.5
V61     V     0.0581   0.1087   0.0
V62     V     0.0581   0.1087   0.5
V63     V     0.0581   0.6087   0.0
V64     V     0.0581   0.6087   0.5
loop_
_geom_bond_atom_site_label_1
_geom_bond_atom_site_label_2
_geom_bond_distance
_geom_bond_site_symmetry_2
_ccdc_geom_bond_type
V1     V14    10.0   1_554     S
V1     V10    10.0   1_554     S
V1     V9    10.0   .     S
V1     V13    10.0   .     S
V1     V16    10.0   1_554     S
V1     V5    10.0   .     S
V1     V15    10.0   .     S
V1     V57    10.0   .     S
V1     V49    10.0   .     S
V2     V13    10.0   .     S
V2     V9    10.0   .     S
V2     V10    10.0   .     S
V2     V14    10.0   .     S
V2     V15    10.0   .     S
V2     V6    10.0   .     S
V2     V16    10.0   .     S
V2     V58    10.0   .     S
V2     V50    10.0   .     S
V3     V16    10.0   1_554     S
V3     V12    10.0   1_554     S
V3     V11    10.0   .     S
V3     V15    10.0   .     S
V3     V14    10.0   1_564     S
V3     V7    10.0   .     S
V3     V13    10.0   1_565     S
V3     V59    10.0   .     S
V3     V51    10.0   .     S
V4     V15    10.0   .     S
V4     V11    10.0   .     S
V4     V12    10.0   .     S
V4     V16    10.0   .     S
V4     V13    10.0   1_565     S
V4     V8    10.0   .     S
V4     V14    10.0   1_565     S
V4     V60    10.0   .     S
V4     V52    10.0   .     S
V5     V31    10.0   .     S
V5     V21    10.0   .     S
V5     V10    10.0   1_554     S
V5     V9    10.0   .     S
V5     V12    10.0   1_554     S
V5     V16    10.0   1_554     S
V5     V15    10.0   .     S
V5     V11    10.0   .     S
V6     V32    10.0   .     S
V6     V22    10.0   .     S
V6     V9    10.0   .     S
V6     V10    10.0   .     S
V6     V11    10.0   .     S
V6     V15    10.0   .     S
V6     V16    10.0   .     S
V6     V12    10.0   .     S
V7     V29    10.0   1_565     S
V7     V23    10.0   .     S
V7     V12    10.0   1_554     S
V7     V11    10.0   .     S
V7     V10    10.0   1_564     S
V7     V14    10.0   1_564     S
V7     V13    10.0   1_565     S
V7     V9    10.0   1_565     S
V8     V30    10.0   1_565     S
V8     V24    10.0   .     S
V8     V11    10.0   .     S
V8     V12    10.0   .     S
V8     V9    10.0   1_565     S
V8     V13    10.0   1_565     S
V8     V14    10.0   1_565     S
V8     V10    10.0   1_565     S
V9     V29    10.0   .     S
V9     V22    10.0   .     S
V9     V8    10.0   1_545     S
V9     V7    10.0   1_545     S
V9     V13    10.0   .     S
V10     V30    10.0   .     S
V10     V21    10.0   1_556     S
V10     V1    10.0   1_556     S
V10     V5    10.0   1_556     S
V10     V7    10.0   1_546     S
V10     V8    10.0   1_545     S
V10     V14    10.0   .     S
V11     V31    10.0   .     S
V11     V24    10.0   .     S
V11     V15    10.0   .     S
V12     V32    10.0   .     S
V12     V23    10.0   1_556     S
V12     V3    10.0   1_556     S
V12     V7    10.0   1_556     S
V12     V5    10.0   1_556     S
V12     V16    10.0   .     S
V13     V8    10.0   1_545     S
V13     V4    10.0   1_545     S
V13     V3    10.0   1_545     S
V13     V7    10.0   1_545     S
V13     V60    10.0   1_545     S
V13     V49    10.0   .     S
V14     V1    10.0   1_556     S
V14     V7    10.0   1_546     S
V14     V3    10.0   1_546     S
V14     V4    10.0   1_545     S
V14     V8    10.0   1_545     S
V14     V59    10.0   1_546     S
V14     V50    10.0   .     S
V15     V58    10.0   .     S
V15     V51    10.0   .     S
V16     V3    10.0   1_556     S
V16     V5    10.0   1_556     S
V16     V1    10.0   1_556     S
V16     V57    10.0   1_556     S
V16     V52    10.0   .     S
V17     V25    10.0   .     S
V17     V29    10.0   .     S
V17     V27    10.0   1_545     S
V17     V21    10.0   .     S
V17     V26    10.0   1_554     S
V17     V30    10.0   1_554     S
V17     V28    10.0   1_544     S
V17     V45    10.0   .     S
V17     V34    10.0   1_554     S
V18     V26    10.0   .     S
V18     V30    10.0   .     S
V18     V28    10.0   1_545     S
V18     V22    10.0   .     S
V18     V25    10.0   .     S
V18     V29    10.0   .     S
V18     V27    10.0   1_545     S
V18     V46    10.0   .     S
V18     V33    10.0   .     S
V19     V27    10.0   .     S
V19     V31    10.0   .     S
V19     V25    10.0   .     S
V19     V23    10.0   .     S
V19     V28    10.0   1_554     S
V19     V32    10.0   1_554     S
V19     V26    10.0   1_554     S
V19     V47    10.0   .     S
V19     V36    10.0   1_554     S
V20     V28    10.0   .     S
V20     V32    10.0   .     S
V20     V26    10.0   .     S
V20     V24    10.0   .     S
V20     V27    10.0   .     S
V20     V31    10.0   .     S
V20     V25    10.0   .     S
V20     V48    10.0   .     S
V20     V35    10.0   .     S
V21     V10    10.0   1_554     S
V21     V25    10.0   .     S
V21     V31    10.0   .     S
V21     V29    10.0   .     S
V21     V32    10.0   1_554     S
V21     V26    10.0   1_554     S
V21     V30    10.0   1_554     S
V22     V26    10.0   .     S
V22     V32    10.0   .     S
V22     V30    10.0   .     S
V22     V31    10.0   .     S
V22     V25    10.0   .     S
V22     V29    10.0   .     S
V23     V12    10.0   1_554     S
V23     V27    10.0   .     S
V23     V29    10.0   1_565     S
V23     V31    10.0   .     S
V23     V30    10.0   1_564     S
V23     V28    10.0   1_554     S
V23     V32    10.0   1_554     S
V24     V28    10.0   .     S
V24     V30    10.0   1_565     S
V24     V32    10.0   .     S
V24     V29    10.0   1_565     S
V24     V27    10.0   .     S
V24     V31    10.0   .     S
V25     V31    10.0   .     S
V25     V47    10.0   .     S
V25     V33    10.0   .     S
V26     V21    10.0   1_556     S
V26     V17    10.0   1_556     S
V26     V32    10.0   .     S
V26     V19    10.0   1_556     S
V26     V48    10.0   .     S
V26     V34    10.0   .     S
V27     V17    10.0   1_565     S
V27     V29    10.0   1_565     S
V27     V18    10.0   1_565     S
V27     V45    10.0   1_565     S
V27     V35    10.0   .     S
V28     V18    10.0   1_565     S
V28     V23    10.0   1_556     S
V28     V19    10.0   1_556     S
V28     V30    10.0   1_565     S
V28     V17    10.0   1_566     S
V28     V46    10.0   1_565     S
V28     V36    10.0   .     S
V29     V7    10.0   1_545     S
V29     V23    10.0   1_545     S
V29     V24    10.0   1_545     S
V29     V27    10.0   1_545     S
V30     V8    10.0   1_545     S
V30     V24    10.0   1_545     S
V30     V23    10.0   1_546     S
V30     V28    10.0   1_545     S
V30     V17    10.0   1_556     S
V30     V21    10.0   1_556     S
V32     V21    10.0   1_556     S
V32     V19    10.0   1_556     S
V32     V23    10.0   1_556     S
V33     V42    10.0   .     S
V33     V46    10.0   .     S
V33     V45    10.0   .     S
V33     V41    10.0   .     S
V33     V37    10.0   .     S
V33     V47    10.0   .     S
V33     V48    10.0   .     S
V34     V17    10.0   1_556     S
V34     V41    10.0   1_556     S
V34     V45    10.0   1_556     S
V34     V46    10.0   .     S
V34     V42    10.0   .     S
V34     V38    10.0   .     S
V34     V48    10.0   .     S
V34     V47    10.0   1_556     S
V35     V44    10.0   .     S
V35     V48    10.0   .     S
V35     V47    10.0   .     S
V35     V43    10.0   .     S
V35     V39    10.0   .     S
V35     V45    10.0   1_565     S
V35     V46    10.0   1_565     S
V36     V19    10.0   1_556     S
V36     V43    10.0   1_556     S
V36     V47    10.0   1_556     S
V36     V48    10.0   .     S
V36     V44    10.0   .     S
V36     V40    10.0   .     S
V36     V46    10.0   1_565     S
V36     V45    10.0   1_566     S
V37     V42    10.0   .     S
V37     V41    10.0   .     S
V37     V47    10.0   .     S
V37     V43    10.0   .     S
V37     V48    10.0   .     S
V37     V44    10.0   .     S
V37     V64    10.0   .     S
V37     V53    10.0   .     S
V38     V41    10.0   1_556     S
V38     V42    10.0   .     S
V38     V48    10.0   .     S
V38     V44    10.0   .     S
V38     V47    10.0   1_556     S
V38     V43    10.0   1_556     S
V38     V63    10.0   1_556     S
V38     V54    10.0   .     S
V39     V44    10.0   .     S
V39     V43    10.0   .     S
V39     V45    10.0   1_565     S
V39     V41    10.0   1_565     S
V39     V46    10.0   1_565     S
V39     V42    10.0   1_565     S
V39     V62    10.0   1_565     S
V39     V55    10.0   .     S
V40     V43    10.0   1_556     S
V40     V44    10.0   .     S
V40     V46    10.0   1_565     S
V40     V42    10.0   1_565     S
V40     V45    10.0   1_566     S
V40     V41    10.0   1_566     S
V40     V61    10.0   1_566     S
V40     V56    10.0   .     S
V41     V34    10.0   1_554     S
V41     V38    10.0   1_554     S
V41     V39    10.0   1_545     S
V41     V40    10.0   1_544     S
V41     V45    10.0   .     S
V41     V61    10.0   .     S
V41     V53    10.0   .     S
V42     V40    10.0   1_545     S
V42     V39    10.0   1_545     S
V42     V46    10.0   .     S
V42     V62    10.0   .     S
V42     V54    10.0   .     S
V43     V36    10.0   1_554     S
V43     V40    10.0   1_554     S
V43     V38    10.0   1_554     S
V43     V47    10.0   .     S
V43     V63    10.0   .     S
V43     V55    10.0   .     S
V44     V48    10.0   .     S
V44     V64    10.0   .     S
V44     V56    10.0   .     S
V45     V27    10.0   1_545     S
V45     V34    10.0   1_554     S
V45     V39    10.0   1_545     S
V45     V35    10.0   1_545     S
V45     V36    10.0   1_544     S
V45     V40    10.0   1_544     S
V46     V28    10.0   1_545     S
V46     V40    10.0   1_545     S
V46     V36    10.0   1_545     S
V46     V35    10.0   1_545     S
V46     V39    10.0   1_545     S
V47     V36    10.0   1_554     S
V47     V34    10.0   1_554     S
V47     V38    10.0   1_554     S
V49     V62    10.0   1_655     S
V49     V60    10.0   1_545     S
V49     V59    10.0   1_545     S
V49     V61    10.0   1_655     S
V49     V53    10.0   1_655     S
V49     V58    10.0   .     S
V49     V57    10.0   .     S
V50     V61    10.0   1_656     S
V50     V59    10.0   1_546     S
V50     V60    10.0   1_545     S
V50     V62    10.0   1_655     S
V50     V54    10.0   1_655     S
V50     V57    10.0   1_556     S
V50     V58    10.0   .     S
V51     V64    10.0   1_655     S
V51     V58    10.0   .     S
V51     V57    10.0   .     S
V51     V63    10.0   1_655     S
V51     V55    10.0   1_655     S
V51     V60    10.0   .     S
V51     V59    10.0   .     S
V52     V63    10.0   1_656     S
V52     V57    10.0   1_556     S
V52     V58    10.0   .     S
V52     V64    10.0   1_655     S
V52     V56    10.0   1_655     S
V52     V59    10.0   1_556     S
V52     V60    10.0   .     S
V53     V62    10.0   .     S
V53     V61    10.0   .     S
V53     V49    10.0   1_455     S
V53     V58    10.0   1_455     S
V53     V64    10.0   .     S
V53     V57    10.0   1_455     S
V53     V63    10.0   .     S
V54     V61    10.0   1_556     S
V54     V62    10.0   .     S
V54     V50    10.0   1_455     S
V54     V57    10.0   1_456     S
V54     V63    10.0   1_556     S
V54     V58    10.0   1_455     S
V54     V64    10.0   .     S
V55     V64    10.0   .     S
V55     V63    10.0   .     S
V55     V51    10.0   1_455     S
V55     V60    10.0   1_455     S
V55     V62    10.0   1_565     S
V55     V59    10.0   1_455     S
V55     V61    10.0   1_565     S
V56     V63    10.0   1_556     S
V56     V64    10.0   .     S
V56     V52    10.0   1_455     S
V56     V59    10.0   1_456     S
V56     V61    10.0   1_566     S
V56     V60    10.0   1_455     S
V56     V62    10.0   1_565     S
V57     V16    10.0   1_554     S
V57     V52    10.0   1_554     S
V57     V50    10.0   1_554     S
V57     V54    10.0   1_654     S
V57     V63    10.0   1_655     S
V57     V53    10.0   1_655     S
V58     V53    10.0   1_655     S
V58     V64    10.0   1_655     S
V58     V54    10.0   1_655     S
V59     V14    10.0   1_564     S
V59     V50    10.0   1_564     S
V59     V49    10.0   1_565     S
V59     V52    10.0   1_554     S
V59     V56    10.0   1_654     S
V59     V61    10.0   1_665     S
V59     V55    10.0   1_655     S
V60     V13    10.0   1_565     S
V60     V49    10.0   1_565     S
V60     V50    10.0   1_565     S
V60     V55    10.0   1_655     S
V60     V62    10.0   1_665     S
V60     V56    10.0   1_655     S
V61     V50    10.0   1_454     S
V61     V54    10.0   1_554     S
V61     V49    10.0   1_455     S
V61     V56    10.0   1_544     S
V61     V59    10.0   1_445     S
V61     V55    10.0   1_545     S
V61     V40    10.0   1_544     S
V62     V49    10.0   1_455     S
V62     V50    10.0   1_455     S
V62     V55    10.0   1_545     S
V62     V60    10.0   1_445     S
V62     V56    10.0   1_545     S
V62     V39    10.0   1_545     S
V63     V52    10.0   1_454     S
V63     V56    10.0   1_554     S
V63     V51    10.0   1_455     S
V63     V54    10.0   1_554     S
V63     V57    10.0   1_455     S
V63     V38    10.0   1_554     S
V64     V51    10.0   1_455     S
V64     V52    10.0   1_455     S
V64     V58    10.0   1_455     S
