data_skl
_audit_creation_date              2019-12-31
_audit_creation_method            'Pymatgen'
_symmetry_space_group_name_H-M    'P1'
_symmetry_Int_Tables_number       1
loop_
_symmetry_equiv_pos_as_xyz
  x,y,z
_cell_length_a                    30.0
_cell_length_b                    30.0
_cell_length_c                    35.9466
_cell_angle_alpha                 90.0
_cell_angle_beta                 90.0
_cell_angle_gamma                 90.0
loop_
_atom_site_label
_atom_site_type_symbol
_atom_site_fract_x
_atom_site_fract_y
_atom_site_fract_z
V1     V     0.25   0.0005   0.4805
V2     V     0.25   0.3339   0.4805
V3     V     0.25   0.6672   0.4805
V4     V     0.5833   0.0005   0.4805
V5     V     0.5833   0.3339   0.4805
V6     V     0.5833   0.6672   0.4805
V7     V     0.9167   0.0005   0.4805
V8     V     0.9167   0.3339   0.4805
V9     V     0.9167   0.6672   0.4805
V10     V     0.25   0.1661   0.4805
V11     V     0.25   0.4995   0.4805
V12     V     0.25   0.8328   0.4805
V13     V     0.5833   0.1661   0.4805
V14     V     0.5833   0.4995   0.4805
V15     V     0.5833   0.8328   0.4805
V16     V     0.9167   0.1661   0.4805
V17     V     0.9167   0.4995   0.4805
V18     V     0.9167   0.8328   0.4805
V19     V     0.1672   0.0833   0.0195
V20     V     0.1672   0.4167   0.0195
V21     V     0.1672   0.75   0.0195
V22     V     0.5005   0.0833   0.0195
V23     V     0.5005   0.4167   0.0195
V24     V     0.5005   0.75   0.0195
V25     V     0.8339   0.0833   0.0195
V26     V     0.8339   0.4167   0.0195
V27     V     0.8339   0.75   0.0195
V28     V     0.3328   0.0833   0.0195
V29     V     0.3328   0.4167   0.0195
V30     V     0.3328   0.75   0.0195
V31     V     0.6661   0.0833   0.0195
V32     V     0.6661   0.4167   0.0195
V33     V     0.6661   0.75   0.0195
V34     V     0.9995   0.0833   0.0195
V35     V     0.9995   0.4167   0.0195
V36     V     0.9995   0.75   0.0195
Er37     Er     0.0833   0.25   0.25
Er38     Er     0.0833   0.5833   0.25
Er39     Er     0.0833   0.9167   0.25
Er40     Er     0.4167   0.25   0.25
Er41     Er     0.4167   0.5833   0.25
Er42     Er     0.4167   0.9167   0.25
Er43     Er     0.75   0.25   0.25
Er44     Er     0.75   0.5833   0.25
Er45     Er     0.75   0.9167   0.25
V46     V     0.0005   0.25   0.9805
V47     V     0.0005   0.5833   0.9805
V48     V     0.0005   0.9167   0.9805
V49     V     0.3339   0.25   0.9805
V50     V     0.3339   0.5833   0.9805
V51     V     0.3339   0.9167   0.9805
V52     V     0.6672   0.25   0.9805
V53     V     0.6672   0.5833   0.9805
V54     V     0.6672   0.9167   0.9805
V55     V     0.1661   0.25   0.9805
V56     V     0.1661   0.5833   0.9805
V57     V     0.1661   0.9167   0.9805
V58     V     0.4995   0.25   0.9805
V59     V     0.4995   0.5833   0.9805
V60     V     0.4995   0.9167   0.9805
V61     V     0.8328   0.25   0.9805
V62     V     0.8328   0.5833   0.9805
V63     V     0.8328   0.9167   0.9805
V64     V     0.0833   0.1672   0.5195
V65     V     0.0833   0.5005   0.5195
V66     V     0.0833   0.8339   0.5195
V67     V     0.4167   0.1672   0.5195
V68     V     0.4167   0.5005   0.5195
V69     V     0.4167   0.8339   0.5195
V70     V     0.75   0.1672   0.5195
V71     V     0.75   0.5005   0.5195
V72     V     0.75   0.8339   0.5195
V73     V     0.0833   0.3328   0.5195
V74     V     0.0833   0.6661   0.5195
V75     V     0.0833   0.9995   0.5195
V76     V     0.4167   0.3328   0.5195
V77     V     0.4167   0.6661   0.5195
V78     V     0.4167   0.9995   0.5195
V79     V     0.75   0.3328   0.5195
V80     V     0.75   0.6661   0.5195
V81     V     0.75   0.9995   0.5195
Er82     Er     0.25   0.0833   0.75
Er83     Er     0.25   0.4167   0.75
Er84     Er     0.25   0.75   0.75
Er85     Er     0.5833   0.0833   0.75
Er86     Er     0.5833   0.4167   0.75
Er87     Er     0.5833   0.75   0.75
Er88     Er     0.9167   0.0833   0.75
Er89     Er     0.9167   0.4167   0.75
Er90     Er     0.9167   0.75   0.75
loop_
_geom_bond_atom_site_label_1
_geom_bond_atom_site_label_2
_geom_bond_distance
_geom_bond_site_symmetry_2
_ccdc_geom_bond_type
V1     Er42    10.0   1_545     S
V1     Er39    10.0   1_545     S
V1     Er82    10.0   .     S
V2     Er40    10.0   .     S
V2     Er37    10.0   .     S
V2     Er83    10.0   .     S
V3     Er41    10.0   .     S
V3     Er38    10.0   .     S
V3     Er84    10.0   .     S
V4     Er45    10.0   1_545     S
V4     Er42    10.0   1_545     S
V4     Er85    10.0   .     S
V5     Er43    10.0   .     S
V5     Er40    10.0   .     S
V5     Er86    10.0   .     S
V6     Er44    10.0   .     S
V6     Er41    10.0   .     S
V6     Er87    10.0   .     S
V7     Er39    10.0   1_645     S
V7     Er45    10.0   1_545     S
V7     Er88    10.0   .     S
V8     Er37    10.0   1_655     S
V8     Er43    10.0   .     S
V8     Er89    10.0   .     S
V9     Er38    10.0   1_655     S
V9     Er44    10.0   .     S
V9     Er90    10.0   .     S
V10     Er40    10.0   .     S
V10     Er37    10.0   .     S
V10     Er82    10.0   .     S
V11     Er41    10.0   .     S
V11     Er38    10.0   .     S
V11     Er83    10.0   .     S
V12     Er42    10.0   .     S
V12     Er39    10.0   .     S
V12     Er84    10.0   .     S
V13     Er43    10.0   .     S
V13     Er40    10.0   .     S
V13     Er85    10.0   .     S
V14     Er44    10.0   .     S
V14     Er41    10.0   .     S
V14     Er86    10.0   .     S
V15     Er45    10.0   .     S
V15     Er42    10.0   .     S
V15     Er87    10.0   .     S
V16     Er37    10.0   1_655     S
V16     Er43    10.0   .     S
V16     Er88    10.0   .     S
V17     Er38    10.0   1_655     S
V17     Er44    10.0   .     S
V17     Er89    10.0   .     S
V18     Er39    10.0   1_655     S
V18     Er45    10.0   .     S
V18     Er90    10.0   .     S
V19     Er37    10.0   .     S
V19     Er39    10.0   1_545     S
V19     Er82    10.0   1_554     S
V20     Er38    10.0   .     S
V20     Er37    10.0   .     S
V20     Er83    10.0   1_554     S
V21     Er39    10.0   .     S
V21     Er38    10.0   .     S
V21     Er84    10.0   1_554     S
V22     Er40    10.0   .     S
V22     Er42    10.0   1_545     S
V22     Er85    10.0   1_554     S
V23     Er41    10.0   .     S
V23     Er40    10.0   .     S
V23     Er86    10.0   1_554     S
V24     Er42    10.0   .     S
V24     Er41    10.0   .     S
V24     Er87    10.0   1_554     S
V25     Er43    10.0   .     S
V25     Er45    10.0   1_545     S
V25     Er88    10.0   1_554     S
V26     Er44    10.0   .     S
V26     Er43    10.0   .     S
V26     Er89    10.0   1_554     S
V27     Er45    10.0   .     S
V27     Er44    10.0   .     S
V27     Er90    10.0   1_554     S
V28     Er40    10.0   .     S
V28     Er42    10.0   1_545     S
V28     Er82    10.0   1_554     S
V29     Er41    10.0   .     S
V29     Er40    10.0   .     S
V29     Er83    10.0   1_554     S
V30     Er42    10.0   .     S
V30     Er41    10.0   .     S
V30     Er84    10.0   1_554     S
V31     Er43    10.0   .     S
V31     Er45    10.0   1_545     S
V31     Er85    10.0   1_554     S
V32     Er44    10.0   .     S
V32     Er43    10.0   .     S
V32     Er86    10.0   1_554     S
V33     Er45    10.0   .     S
V33     Er44    10.0   .     S
V33     Er87    10.0   1_554     S
V34     Er37    10.0   1_655     S
V34     Er39    10.0   1_645     S
V34     Er88    10.0   1_554     S
V35     Er38    10.0   1_655     S
V35     Er37    10.0   1_655     S
V35     Er89    10.0   1_554     S
V36     Er39    10.0   1_655     S
V36     Er38    10.0   1_655     S
V36     Er90    10.0   1_554     S
Er37     V16    10.0   1_455     S
Er37     V8    10.0   1_455     S
Er37     V64    10.0   .     S
Er37     V73    10.0   .     S
Er37     V34    10.0   1_455     S
Er37     V46    10.0   1_554     S
Er37     V55    10.0   1_554     S
Er37     V35    10.0   1_455     S
Er37     Er39    10.0   1_545     S
Er37     Er38    10.0   .     S
Er37     Er40    10.0   .     S
Er37     Er43    10.0   1_455     S
Er38     V17    10.0   1_455     S
Er38     V9    10.0   1_455     S
Er38     V65    10.0   .     S
Er38     V74    10.0   .     S
Er38     V35    10.0   1_455     S
Er38     V47    10.0   1_554     S
Er38     V56    10.0   1_554     S
Er38     V36    10.0   1_455     S
Er38     Er39    10.0   .     S
Er38     Er41    10.0   .     S
Er38     Er44    10.0   1_455     S
Er39     V18    10.0   1_455     S
Er39     V7    10.0   1_465     S
Er39     V66    10.0   .     S
Er39     V75    10.0   .     S
Er39     V1    10.0   1_565     S
Er39     V36    10.0   1_455     S
Er39     V48    10.0   1_554     S
Er39     V57    10.0   1_554     S
Er39     V19    10.0   1_565     S
Er39     V34    10.0   1_465     S
Er39     Er37    10.0   1_565     S
Er39     Er42    10.0   .     S
Er39     Er45    10.0   1_455     S
Er40     V67    10.0   .     S
Er40     V76    10.0   .     S
Er40     V49    10.0   1_554     S
Er40     V58    10.0   1_554     S
Er40     Er42    10.0   1_545     S
Er40     Er41    10.0   .     S
Er40     Er43    10.0   .     S
Er41     V68    10.0   .     S
Er41     V77    10.0   .     S
Er41     V50    10.0   1_554     S
Er41     V59    10.0   1_554     S
Er41     Er42    10.0   .     S
Er41     Er44    10.0   .     S
Er42     V1    10.0   1_565     S
Er42     V69    10.0   .     S
Er42     V78    10.0   .     S
Er42     V4    10.0   1_565     S
Er42     V51    10.0   1_554     S
Er42     V60    10.0   1_554     S
Er42     V22    10.0   1_565     S
Er42     V28    10.0   1_565     S
Er42     Er40    10.0   1_565     S
Er42     Er45    10.0   .     S
Er43     V70    10.0   .     S
Er43     V79    10.0   .     S
Er43     V52    10.0   1_554     S
Er43     V61    10.0   1_554     S
Er43     Er45    10.0   1_545     S
Er43     Er44    10.0   .     S
Er43     Er37    10.0   1_655     S
Er44     V71    10.0   .     S
Er44     V80    10.0   .     S
Er44     V53    10.0   1_554     S
Er44     V62    10.0   1_554     S
Er44     Er45    10.0   .     S
Er44     Er38    10.0   1_655     S
Er45     V4    10.0   1_565     S
Er45     V72    10.0   .     S
Er45     V81    10.0   .     S
Er45     V7    10.0   1_565     S
Er45     V54    10.0   1_554     S
Er45     V63    10.0   1_554     S
Er45     V25    10.0   1_565     S
Er45     V31    10.0   1_565     S
Er45     Er43    10.0   1_565     S
Er45     Er39    10.0   1_655     S
V46     Er37    10.0   1_556     S
V46     Er88    10.0   1_455     S
V46     Er89    10.0   1_455     S
V47     Er38    10.0   1_556     S
V47     Er89    10.0   1_455     S
V47     Er90    10.0   1_455     S
V48     Er39    10.0   1_556     S
V48     Er90    10.0   1_455     S
V48     Er88    10.0   1_465     S
V49     Er40    10.0   1_556     S
V49     Er82    10.0   .     S
V49     Er83    10.0   .     S
V50     Er41    10.0   1_556     S
V50     Er83    10.0   .     S
V50     Er84    10.0   .     S
V51     Er42    10.0   1_556     S
V51     Er84    10.0   .     S
V51     Er82    10.0   1_565     S
V52     Er43    10.0   1_556     S
V52     Er85    10.0   .     S
V52     Er86    10.0   .     S
V53     Er44    10.0   1_556     S
V53     Er86    10.0   .     S
V53     Er87    10.0   .     S
V54     Er45    10.0   1_556     S
V54     Er87    10.0   .     S
V54     Er85    10.0   1_565     S
V55     Er37    10.0   1_556     S
V55     Er82    10.0   .     S
V55     Er83    10.0   .     S
V56     Er38    10.0   1_556     S
V56     Er83    10.0   .     S
V56     Er84    10.0   .     S
V57     Er39    10.0   1_556     S
V57     Er84    10.0   .     S
V57     Er82    10.0   1_565     S
V58     Er40    10.0   1_556     S
V58     Er85    10.0   .     S
V58     Er86    10.0   .     S
V59     Er41    10.0   1_556     S
V59     Er86    10.0   .     S
V59     Er87    10.0   .     S
V60     Er42    10.0   1_556     S
V60     Er87    10.0   .     S
V60     Er85    10.0   1_565     S
V61     Er43    10.0   1_556     S
V61     Er88    10.0   .     S
V61     Er89    10.0   .     S
V62     Er44    10.0   1_556     S
V62     Er89    10.0   .     S
V62     Er90    10.0   .     S
V63     Er45    10.0   1_556     S
V63     Er90    10.0   .     S
V63     Er88    10.0   1_565     S
V64     Er88    10.0   1_455     S
V64     Er82    10.0   .     S
V65     Er89    10.0   1_455     S
V65     Er83    10.0   .     S
V66     Er90    10.0   1_455     S
V66     Er84    10.0   .     S
V67     Er82    10.0   .     S
V67     Er85    10.0   .     S
V68     Er83    10.0   .     S
V68     Er86    10.0   .     S
V69     Er84    10.0   .     S
V69     Er87    10.0   .     S
V70     Er85    10.0   .     S
V70     Er88    10.0   .     S
V71     Er86    10.0   .     S
V71     Er89    10.0   .     S
V72     Er87    10.0   .     S
V72     Er90    10.0   .     S
V73     Er89    10.0   1_455     S
V73     Er83    10.0   .     S
V74     Er90    10.0   1_455     S
V74     Er84    10.0   .     S
V75     Er88    10.0   1_465     S
V75     Er82    10.0   1_565     S
V76     Er83    10.0   .     S
V76     Er86    10.0   .     S
V77     Er84    10.0   .     S
V77     Er87    10.0   .     S
V78     Er82    10.0   1_565     S
V78     Er85    10.0   1_565     S
V79     Er86    10.0   .     S
V79     Er89    10.0   .     S
V80     Er87    10.0   .     S
V80     Er90    10.0   .     S
V81     Er85    10.0   1_565     S
V81     Er88    10.0   1_565     S
Er82     V78    10.0   1_545     S
Er82     V75    10.0   1_545     S
Er82     V19    10.0   1_556     S
Er82     V28    10.0   1_556     S
Er82     V51    10.0   1_545     S
Er82     V57    10.0   1_545     S
Er82     Er88    10.0   1_455     S
Er82     Er85    10.0   .     S
Er82     Er83    10.0   .     S
Er82     Er84    10.0   1_545     S
Er83     V20    10.0   1_556     S
Er83     V29    10.0   1_556     S
Er83     Er89    10.0   1_455     S
Er83     Er86    10.0   .     S
Er83     Er84    10.0   .     S
Er84     V21    10.0   1_556     S
Er84     V30    10.0   1_556     S
Er84     Er90    10.0   1_455     S
Er84     Er87    10.0   .     S
Er84     Er82    10.0   1_565     S
Er85     V81    10.0   1_545     S
Er85     V78    10.0   1_545     S
Er85     V22    10.0   1_556     S
Er85     V31    10.0   1_556     S
Er85     V54    10.0   1_545     S
Er85     V60    10.0   1_545     S
Er85     Er88    10.0   .     S
Er85     Er86    10.0   .     S
Er85     Er87    10.0   1_545     S
Er86     V23    10.0   1_556     S
Er86     V32    10.0   1_556     S
Er86     Er89    10.0   .     S
Er86     Er87    10.0   .     S
Er87     V24    10.0   1_556     S
Er87     V33    10.0   1_556     S
Er87     Er90    10.0   .     S
Er87     Er85    10.0   1_565     S
Er88     V75    10.0   1_645     S
Er88     V64    10.0   1_655     S
Er88     V81    10.0   1_545     S
Er88     V46    10.0   1_655     S
Er88     V25    10.0   1_556     S
Er88     V34    10.0   1_556     S
Er88     V48    10.0   1_645     S
Er88     V63    10.0   1_545     S
Er88     Er82    10.0   1_655     S
Er88     Er89    10.0   .     S
Er88     Er90    10.0   1_545     S
Er89     V73    10.0   1_655     S
Er89     V65    10.0   1_655     S
Er89     V47    10.0   1_655     S
Er89     V26    10.0   1_556     S
Er89     V35    10.0   1_556     S
Er89     V46    10.0   1_655     S
Er89     Er83    10.0   1_655     S
Er89     Er90    10.0   .     S
Er90     V74    10.0   1_655     S
Er90     V66    10.0   1_655     S
Er90     V48    10.0   1_655     S
Er90     V27    10.0   1_556     S
Er90     V36    10.0   1_556     S
Er90     V47    10.0   1_655     S
Er90     Er84    10.0   1_655     S
Er90     Er88    10.0   1_565     S
