data_smb
_audit_creation_date              2019-12-31
_audit_creation_method            'Pymatgen'
_symmetry_space_group_name_H-M    'P1'
_symmetry_Int_Tables_number       1
loop_
_symmetry_equiv_pos_as_xyz
  x,y,z
_cell_length_a                    24.9921
_cell_length_b                    24.9921
_cell_length_c                    38.754
_cell_angle_alpha                 90.0
_cell_angle_beta                 90.0
_cell_angle_gamma                 120.0
loop_
_atom_site_label
_atom_site_type_symbol
_atom_site_fract_x
_atom_site_fract_y
_atom_site_fract_z
V1     V     0.4667   0.5333   0.1667
V2     V     0.4667   0.5333   0.6667
V3     V     0.4667   0.9334   0.1667
V4     V     0.4667   0.9334   0.6667
V5     V     0.0666   0.5333   0.1667
V6     V     0.0666   0.5333   0.6667
V7     V     0.3999   0.2   0.0
V8     V     0.3999   0.2   0.5
V9     V     0.8   0.2   0.0
V10     V     0.8   0.2   0.5
V11     V     0.8   0.6001   0.0
V12     V     0.8   0.6001   0.5
V13     V     0.7333   0.8666   0.3333
V14     V     0.7333   0.8666   0.8333
V15     V     0.1334   0.8666   0.3333
V16     V     0.1334   0.8666   0.8333
V17     V     0.1334   0.2667   0.3333
V18     V     0.1334   0.2667   0.8333
loop_
_geom_bond_atom_site_label_1
_geom_bond_atom_site_label_2
_geom_bond_distance
_geom_bond_site_symmetry_2
_ccdc_geom_bond_type
V1     V5    10.0   .     S
V1     V3    10.0   .     S
V1     V17    10.0   .     S
V1     V13    10.0   .     S
V1     V7    10.0   .     S
V1     V11    10.0   .     S
V2     V6    10.0   .     S
V2     V4    10.0   .     S
V2     V18    10.0   .     S
V2     V14    10.0   .     S
V2     V8    10.0   .     S
V2     V12    10.0   .     S
V3     V5    10.0   .     S
V3     V13    10.0   .     S
V3     V15    10.0   .     S
V3     V9    10.0   1_565     S
V3     V7    10.0   1_565     S
V4     V6    10.0   .     S
V4     V14    10.0   .     S
V4     V16    10.0   .     S
V4     V10    10.0   1_565     S
V4     V8    10.0   1_565     S
V5     V17    10.0   .     S
V5     V15    10.0   .     S
V5     V9    10.0   1_455     S
V5     V11    10.0   1_455     S
V6     V18    10.0   .     S
V6     V16    10.0   .     S
V6     V10    10.0   1_455     S
V6     V12    10.0   1_455     S
V7     V9    10.0   .     S
V7     V11    10.0   .     S
V7     V3    10.0   1_545     S
V7     V16    10.0   1_544     S
V7     V18    10.0   1_554     S
V8     V10    10.0   .     S
V8     V12    10.0   .     S
V8     V4    10.0   1_545     S
V8     V15    10.0   1_545     S
V8     V17    10.0   .     S
V9     V11    10.0   .     S
V9     V5    10.0   1_655     S
V9     V3    10.0   1_545     S
V9     V14    10.0   1_544     S
V9     V18    10.0   1_654     S
V10     V12    10.0   .     S
V10     V6    10.0   1_655     S
V10     V4    10.0   1_545     S
V10     V13    10.0   1_545     S
V10     V17    10.0   1_655     S
V11     V5    10.0   1_655     S
V11     V16    10.0   1_654     S
V11     V14    10.0   1_554     S
V12     V6    10.0   1_655     S
V12     V15    10.0   1_655     S
V12     V13    10.0   .     S
V13     V15    10.0   1_655     S
V13     V17    10.0   1_665     S
V13     V10    10.0   1_565     S
V14     V16    10.0   1_655     S
V14     V18    10.0   1_665     S
V14     V9    10.0   1_566     S
V14     V11    10.0   1_556     S
V15     V13    10.0   1_455     S
V15     V17    10.0   1_565     S
V15     V8    10.0   1_565     S
V15     V12    10.0   1_455     S
V16     V14    10.0   1_455     S
V16     V18    10.0   1_565     S
V16     V7    10.0   1_566     S
V16     V11    10.0   1_456     S
V17     V15    10.0   1_545     S
V17     V13    10.0   1_445     S
V17     V10    10.0   1_455     S
V18     V16    10.0   1_545     S
V18     V14    10.0   1_445     S
V18     V9    10.0   1_456     S
V18     V7    10.0   1_556     S
