data_smc
_audit_creation_date              2019-12-31
_audit_creation_method            'Pymatgen'
_symmetry_space_group_name_H-M    'P1'
_symmetry_Int_Tables_number       1
loop_
_symmetry_equiv_pos_as_xyz
  x,y,z
_cell_length_a                    39.1028
_cell_length_b                    39.1028
_cell_length_c                    28.0597
_cell_angle_alpha                 90.0
_cell_angle_beta                 90.0
_cell_angle_gamma                 120.0
loop_
_atom_site_label
_atom_site_type_symbol
_atom_site_fract_x
_atom_site_fract_y
_atom_site_fract_z
V1     V     0.1667   0.0522   0.6667
V2     V     0.1667   0.5522   0.6667
V3     V     0.6667   0.0522   0.6667
V4     V     0.6667   0.5522   0.6667
V5     V     0.2189   0.0   0.0
V6     V     0.2189   0.5   0.0
V7     V     0.7189   0.0   0.0
V8     V     0.7189   0.5   0.0
V9     V     0.1144   0.4478   0.3333
V10     V     0.1144   0.9478   0.3333
V11     V     0.6144   0.4478   0.3333
V12     V     0.6144   0.9478   0.3333
V13     V     0.3856   0.3333   0.6667
V14     V     0.3856   0.8333   0.6667
V15     V     0.8856   0.3333   0.6667
V16     V     0.8856   0.8333   0.6667
V17     V     0.2811   0.2811   0.0
V18     V     0.2811   0.7811   0.0
V19     V     0.7811   0.2811   0.0
V20     V     0.7811   0.7811   0.0
V21     V     0.3333   0.3856   0.3333
V22     V     0.3333   0.8856   0.3333
V23     V     0.8333   0.3856   0.3333
V24     V     0.8333   0.8856   0.3333
V25     V     0.4478   0.1144   0.6667
V26     V     0.4478   0.6144   0.6667
V27     V     0.9478   0.1144   0.6667
V28     V     0.9478   0.6144   0.6667
V29     V     1.0   0.2189   0.0
V30     V     0.0   0.7189   0.0
V31     V     0.5   0.2189   0.0
V32     V     0.5   0.7189   0.0
V33     V     0.0522   0.1667   0.3333
V34     V     0.0522   0.6667   0.3333
V35     V     0.5522   0.1667   0.3333
V36     V     0.5522   0.6667   0.3333
loop_
_geom_bond_atom_site_label_1
_geom_bond_atom_site_label_2
_geom_bond_distance
_geom_bond_site_symmetry_2
_ccdc_geom_bond_type
V1     V10    10.0   1_545     S
V1     V13    10.0   .     S
V1     V27    10.0   1_455     S
V1     V5    10.0   1_556     S
V1     V16    10.0   1_445     S
V1     V25    10.0   .     S
V2     V9    10.0   .     S
V2     V14    10.0   .     S
V2     V28    10.0   1_455     S
V2     V6    10.0   1_556     S
V2     V15    10.0   1_455     S
V2     V26    10.0   .     S
V3     V12    10.0   1_545     S
V3     V15    10.0   .     S
V3     V25    10.0   .     S
V3     V7    10.0   1_556     S
V3     V14    10.0   1_545     S
V3     V27    10.0   .     S
V4     V11    10.0   .     S
V4     V16    10.0   .     S
V4     V26    10.0   .     S
V4     V8    10.0   1_556     S
V4     V13    10.0   .     S
V4     V28    10.0   .     S
V5     V1    10.0   1_554     S
V5     V18    10.0   1_545     S
V5     V31    10.0   .     S
V5     V10    10.0   1_545     S
V5     V17    10.0   .     S
V5     V30    10.0   1_545     S
V6     V2    10.0   1_554     S
V6     V17    10.0   .     S
V6     V32    10.0   .     S
V6     V9    10.0   .     S
V6     V18    10.0   .     S
V6     V29    10.0   1_455     S
V7     V3    10.0   1_554     S
V7     V20    10.0   1_545     S
V7     V29    10.0   .     S
V7     V12    10.0   1_545     S
V7     V19    10.0   .     S
V7     V32    10.0   1_545     S
V8     V4    10.0   1_554     S
V8     V19    10.0   .     S
V8     V30    10.0   1_655     S
V8     V11    10.0   .     S
V8     V20    10.0   .     S
V8     V31    10.0   .     S
V9     V33    10.0   .     S
V9     V23    10.0   1_455     S
V9     V21    10.0   .     S
V9     V34    10.0   .     S
V10     V1    10.0   1_565     S
V10     V5    10.0   1_565     S
V10     V34    10.0   .     S
V10     V24    10.0   1_455     S
V10     V22    10.0   .     S
V10     V33    10.0   1_565     S
V11     V35    10.0   .     S
V11     V21    10.0   .     S
V11     V23    10.0   .     S
V11     V36    10.0   .     S
V12     V3    10.0   1_565     S
V12     V7    10.0   1_565     S
V12     V36    10.0   .     S
V12     V22    10.0   .     S
V12     V24    10.0   .     S
V12     V35    10.0   1_565     S
V13     V21    10.0   .     S
V13     V25    10.0   .     S
V13     V17    10.0   1_556     S
V13     V26    10.0   .     S
V14     V22    10.0   .     S
V14     V26    10.0   .     S
V14     V3    10.0   1_565     S
V14     V18    10.0   1_556     S
V14     V25    10.0   1_565     S
V15     V23    10.0   .     S
V15     V27    10.0   .     S
V15     V2    10.0   1_655     S
V15     V19    10.0   1_556     S
V15     V28    10.0   .     S
V16     V24    10.0   .     S
V16     V28    10.0   .     S
V16     V1    10.0   1_665     S
V16     V20    10.0   1_556     S
V16     V27    10.0   1_565     S
V17     V13    10.0   1_554     S
V17     V29    10.0   1_455     S
V17     V21    10.0   .     S
V17     V31    10.0   .     S
V18     V5    10.0   1_565     S
V18     V14    10.0   1_554     S
V18     V30    10.0   .     S
V18     V22    10.0   .     S
V18     V32    10.0   .     S
V19     V15    10.0   1_554     S
V19     V31    10.0   .     S
V19     V23    10.0   .     S
V19     V29    10.0   .     S
V20     V7    10.0   1_565     S
V20     V16    10.0   1_554     S
V20     V32    10.0   .     S
V20     V24    10.0   .     S
V20     V30    10.0   1_655     S
V21     V36    10.0   .     S
V21     V33    10.0   .     S
V22     V35    10.0   1_565     S
V22     V34    10.0   .     S
V23     V9    10.0   1_655     S
V23     V34    10.0   1_655     S
V23     V35    10.0   .     S
V24     V10    10.0   1_655     S
V24     V33    10.0   1_665     S
V24     V36    10.0   .     S
V25     V35    10.0   .     S
V25     V14    10.0   1_545     S
V25     V31    10.0   1_556     S
V26     V36    10.0   .     S
V26     V32    10.0   1_556     S
V27     V1    10.0   1_655     S
V27     V33    10.0   1_655     S
V27     V16    10.0   1_545     S
V27     V29    10.0   1_556     S
V28     V2    10.0   1_655     S
V28     V34    10.0   1_655     S
V28     V30    10.0   1_656     S
V29     V17    10.0   1_655     S
V29     V27    10.0   1_554     S
V29     V6    10.0   1_655     S
V29     V33    10.0   1_655     S
V30     V8    10.0   1_455     S
V30     V28    10.0   1_454     S
V30     V20    10.0   1_455     S
V30     V5    10.0   1_565     S
V30     V34    10.0   .     S
V31     V25    10.0   1_554     S
V31     V35    10.0   .     S
V32     V26    10.0   1_554     S
V32     V7    10.0   1_565     S
V32     V36    10.0   .     S
V33     V24    10.0   1_445     S
V33     V27    10.0   1_455     S
V33     V29    10.0   1_455     S
V33     V10    10.0   1_545     S
V34     V23    10.0   1_455     S
V34     V28    10.0   1_455     S
V35     V22    10.0   1_545     S
V35     V12    10.0   1_545     S
