data_sme
_audit_creation_date              2019-12-31
_audit_creation_method            'Pymatgen'
_symmetry_space_group_name_H-M    'P1'
_symmetry_Int_Tables_number       1
loop_
_symmetry_equiv_pos_as_xyz
  x,y,z
_cell_length_a                    30.2303
_cell_length_b                    30.2303
_cell_length_c                    40.0008
_cell_angle_alpha                 90.0
_cell_angle_beta                 90.0
_cell_angle_gamma                 120.0
loop_
_atom_site_label
_atom_site_type_symbol
_atom_site_fract_x
_atom_site_fract_y
_atom_site_fract_z
V1     V     0.5243   0.6667   0.2083
V2     V     0.5243   0.6667   0.7083
V3     V     0.6667   0.5243   0.0417
V4     V     0.6667   0.5243   0.5417
V5     V     0.809   0.809   0.375
V6     V     0.809   0.809   0.875
V7     V     0.3333   0.4757   0.4583
V8     V     0.3333   0.4757   0.9583
V9     V     0.4757   0.3333   0.2917
V10     V     0.4757   0.3333   0.7917
V11     V     0.191   0.191   0.125
V12     V     0.191   0.191   0.625
V13     V     0.4757   0.1423   0.0417
V14     V     0.4757   0.1423   0.5417
V15     V     0.191   0.0   0.375
V16     V     0.191   0.0   0.875
V17     V     0.3333   0.8577   0.2083
V18     V     0.3333   0.8577   0.7083
V19     V     0.5243   0.8577   0.4583
V20     V     0.5243   0.8577   0.9583
V21     V     0.809   0.0   0.125
V22     V     0.809   0.0   0.625
V23     V     0.6667   0.1423   0.2917
V24     V     0.6667   0.1423   0.7917
V25     V     0.1423   0.4757   0.2083
V26     V     0.1423   0.4757   0.7083
V27     V     0.8577   0.3333   0.0417
V28     V     0.8577   0.3333   0.5417
V29     V     1.0   0.191   0.375
V30     V     1.0   0.191   0.875
V31     V     0.1423   0.6667   0.4583
V32     V     0.1423   0.6667   0.9583
V33     V     1.0   0.809   0.125
V34     V     1.0   0.809   0.625
V35     V     0.8577   0.5243   0.2917
V36     V     0.8577   0.5243   0.7917
loop_
_geom_bond_atom_site_label_1
_geom_bond_atom_site_label_2
_geom_bond_distance
_geom_bond_site_symmetry_2
_ccdc_geom_bond_type
V1     V25    10.0   .     S
V1     V17    10.0   .     S
V1     V9    10.0   .     S
V1     V21    10.0   1_565     S
V1     V5    10.0   .     S
V1     V3    10.0   .     S
V2     V26    10.0   .     S
V2     V18    10.0   .     S
V2     V10    10.0   .     S
V2     V22    10.0   1_565     S
V2     V6    10.0   .     S
V2     V4    10.0   .     S
V3     V13    10.0   .     S
V3     V27    10.0   .     S
V3     V8    10.0   1_554     S
V3     V6    10.0   1_554     S
V3     V33    10.0   .     S
V4     V14    10.0   .     S
V4     V28    10.0   .     S
V4     V7    10.0   .     S
V4     V5    10.0   .     S
V4     V34    10.0   .     S
V5     V15    10.0   1_665     S
V5     V29    10.0   1_565     S
V5     V35    10.0   .     S
V5     V19    10.0   .     S
V6     V16    10.0   1_665     S
V6     V30    10.0   1_565     S
V6     V36    10.0   .     S
V6     V20    10.0   .     S
V6     V3    10.0   1_556     S
V7     V31    10.0   .     S
V7     V19    10.0   .     S
V7     V29    10.0   1_455     S
V7     V12    10.0   .     S
V7     V9    10.0   .     S
V8     V32    10.0   .     S
V8     V20    10.0   .     S
V8     V3    10.0   1_556     S
V8     V30    10.0   1_455     S
V8     V11    10.0   1_556     S
V8     V10    10.0   .     S
V9     V23    10.0   .     S
V9     V35    10.0   .     S
V9     V11    10.0   .     S
V9     V15    10.0   .     S
V10     V24    10.0   .     S
V10     V36    10.0   .     S
V10     V12    10.0   .     S
V10     V16    10.0   .     S
V11     V21    10.0   1_455     S
V11     V33    10.0   1_445     S
V11     V25    10.0   .     S
V11     V13    10.0   .     S
V11     V8    10.0   1_554     S
V12     V22    10.0   1_455     S
V12     V34    10.0   1_445     S
V12     V26    10.0   .     S
V12     V14    10.0   .     S
V13     V27    10.0   .     S
V13     V17    10.0   1_545     S
V13     V16    10.0   1_554     S
V13     V20    10.0   1_544     S
V14     V28    10.0   .     S
V14     V18    10.0   1_545     S
V14     V15    10.0   .     S
V14     V19    10.0   1_545     S
V15     V29    10.0   1_455     S
V15     V5    10.0   1_445     S
V15     V31    10.0   1_545     S
V15     V17    10.0   1_545     S
V16     V30    10.0   1_455     S
V16     V6    10.0   1_445     S
V16     V32    10.0   1_545     S
V16     V13    10.0   1_556     S
V16     V18    10.0   1_545     S
V17     V25    10.0   .     S
V17     V23    10.0   1_565     S
V17     V33    10.0   1_455     S
V17     V13    10.0   1_565     S
V17     V15    10.0   1_565     S
V18     V26    10.0   .     S
V18     V24    10.0   1_565     S
V18     V34    10.0   1_455     S
V18     V14    10.0   1_565     S
V18     V16    10.0   1_565     S
V19     V31    10.0   .     S
V19     V14    10.0   1_565     S
V19     V23    10.0   1_565     S
V19     V22    10.0   1_565     S
V20     V32    10.0   .     S
V20     V13    10.0   1_566     S
V20     V24    10.0   1_565     S
V20     V21    10.0   1_566     S
V21     V33    10.0   1_545     S
V21     V11    10.0   1_655     S
V21     V1    10.0   1_545     S
V21     V20    10.0   1_544     S
V21     V23    10.0   .     S
V21     V27    10.0   .     S
V22     V34    10.0   1_545     S
V22     V12    10.0   1_655     S
V22     V2    10.0   1_545     S
V22     V19    10.0   1_545     S
V22     V24    10.0   .     S
V22     V28    10.0   .     S
V23     V35    10.0   .     S
V23     V17    10.0   1_545     S
V23     V29    10.0   .     S
V23     V19    10.0   1_545     S
V24     V36    10.0   .     S
V24     V18    10.0   1_545     S
V24     V30    10.0   .     S
V24     V20    10.0   1_545     S
V25     V27    10.0   1_455     S
V25     V29    10.0   1_455     S
V25     V35    10.0   1_455     S
V26     V28    10.0   1_455     S
V26     V30    10.0   1_455     S
V26     V36    10.0   1_455     S
V27     V32    10.0   1_654     S
V27     V25    10.0   1_655     S
V27     V30    10.0   1_554     S
V28     V31    10.0   1_655     S
V28     V26    10.0   1_655     S
V28     V29    10.0   .     S
V29     V15    10.0   1_655     S
V29     V5    10.0   1_545     S
V29     V7    10.0   1_655     S
V29     V25    10.0   1_655     S
V30     V16    10.0   1_655     S
V30     V6    10.0   1_545     S
V30     V8    10.0   1_655     S
V30     V26    10.0   1_655     S
V30     V27    10.0   1_556     S
V31     V28    10.0   1_455     S
V31     V15    10.0   1_565     S
V31     V35    10.0   1_455     S
V31     V34    10.0   1_455     S
V32     V27    10.0   1_456     S
V32     V16    10.0   1_565     S
V32     V36    10.0   1_455     S
V32     V33    10.0   1_456     S
V33     V21    10.0   1_565     S
V33     V11    10.0   1_665     S
V33     V17    10.0   1_655     S
V33     V32    10.0   1_654     S
V33     V35    10.0   .     S
V34     V22    10.0   1_565     S
V34     V12    10.0   1_665     S
V34     V18    10.0   1_655     S
V34     V31    10.0   1_655     S
V34     V36    10.0   .     S
V35     V25    10.0   1_655     S
V35     V31    10.0   1_655     S
V36     V26    10.0   1_655     S
V36     V32    10.0   1_655     S
