data_smi
_audit_creation_date              2019-12-31
_audit_creation_method            'Pymatgen'
_symmetry_space_group_name_H-M    'P1'
_symmetry_Int_Tables_number       1
loop_
_symmetry_equiv_pos_as_xyz
  x,y,z
_cell_length_a                    34.5722
_cell_length_b                    34.5722
_cell_length_c                    26.6806
_cell_angle_alpha                 90.0
_cell_angle_beta                 90.0
_cell_angle_gamma                 120.0
loop_
_atom_site_label
_atom_site_type_symbol
_atom_site_fract_x
_atom_site_fract_y
_atom_site_fract_z
V1     V     0.4215   0.2108   0.5833
V2     V     0.4215   0.7108   0.5833
V3     V     0.9215   0.2108   0.5833
V4     V     0.9215   0.7108   0.5833
V5     V     0.2892   0.2108   0.9167
V6     V     0.2892   0.7108   0.9167
V7     V     0.7892   0.2108   0.9167
V8     V     0.7892   0.7108   0.9167
V9     V     0.2108   0.4215   0.75
V10     V     0.2107   0.9215   0.75
V11     V     0.7108   0.4215   0.75
V12     V     0.7108   0.9215   0.75
V13     V     0.0785   0.2892   0.0833
V14     V     0.0785   0.7892   0.0833
V15     V     0.5785   0.2892   0.0833
V16     V     0.5785   0.7892   0.0833
V17     V     0.2108   0.2892   0.4167
V18     V     0.2108   0.7892   0.4167
V19     V     0.7108   0.2892   0.4167
V20     V     0.7108   0.7892   0.4167
V21     V     0.2892   0.0785   0.25
V22     V     0.2892   0.5785   0.25
V23     V     0.7892   0.0785   0.25
V24     V     0.7892   0.5785   0.25
loop_
_geom_bond_atom_site_label_1
_geom_bond_atom_site_label_2
_geom_bond_distance
_geom_bond_site_symmetry_2
_ccdc_geom_bond_type
V1     V21    10.0   .     S
V1     V17    10.0   .     S
V1     V19    10.0   .     S
V1     V5    10.0   .     S
V1     V11    10.0   .     S
V1     V10    10.0   1_545     S
V2     V22    10.0   .     S
V2     V18    10.0   .     S
V2     V20    10.0   .     S
V2     V6    10.0   .     S
V2     V12    10.0   .     S
V2     V9    10.0   .     S
V3     V23    10.0   .     S
V3     V19    10.0   .     S
V3     V17    10.0   1_655     S
V3     V7    10.0   .     S
V3     V9    10.0   1_655     S
V3     V12    10.0   1_545     S
V4     V24    10.0   .     S
V4     V20    10.0   .     S
V4     V18    10.0   1_655     S
V4     V8    10.0   .     S
V4     V10    10.0   1_655     S
V4     V11    10.0   .     S
V5     V9    10.0   .     S
V5     V10    10.0   1_545     S
V5     V15    10.0   1_556     S
V5     V13    10.0   1_556     S
V5     V21    10.0   1_556     S
V6     V10    10.0   .     S
V6     V9    10.0   .     S
V6     V16    10.0   1_556     S
V6     V14    10.0   1_556     S
V6     V22    10.0   1_556     S
V7     V11    10.0   .     S
V7     V12    10.0   1_545     S
V7     V13    10.0   1_656     S
V7     V15    10.0   1_556     S
V7     V23    10.0   1_556     S
V8     V12    10.0   .     S
V8     V11    10.0   .     S
V8     V14    10.0   1_656     S
V8     V16    10.0   1_556     S
V8     V24    10.0   1_556     S
V9     V17    10.0   .     S
V9     V3    10.0   1_455     S
V9     V13    10.0   1_556     S
V10     V5    10.0   1_565     S
V10     V18    10.0   .     S
V10     V4    10.0   1_455     S
V10     V1    10.0   1_565     S
V10     V14    10.0   1_556     S
V11     V19    10.0   .     S
V11     V15    10.0   1_556     S
V12     V7    10.0   1_565     S
V12     V20    10.0   .     S
V12     V3    10.0   1_565     S
V12     V16    10.0   1_556     S
V13     V9    10.0   1_554     S
V13     V7    10.0   1_454     S
V13     V5    10.0   1_554     S
V13     V17    10.0   .     S
V13     V23    10.0   1_455     S
V13     V22    10.0   .     S
V14     V10    10.0   1_554     S
V14     V8    10.0   1_454     S
V14     V6    10.0   1_554     S
V14     V18    10.0   .     S
V14     V24    10.0   1_455     S
V14     V21    10.0   1_565     S
V15     V11    10.0   1_554     S
V15     V5    10.0   1_554     S
V15     V7    10.0   1_554     S
V15     V19    10.0   .     S
V15     V21    10.0   .     S
V15     V24    10.0   .     S
V16     V12    10.0   1_554     S
V16     V6    10.0   1_554     S
V16     V8    10.0   1_554     S
V16     V20    10.0   .     S
V16     V22    10.0   .     S
V16     V23    10.0   1_565     S
V17     V3    10.0   1_455     S
V17     V22    10.0   .     S
V17     V21    10.0   .     S
V18     V4    10.0   1_455     S
V18     V21    10.0   1_565     S
V18     V22    10.0   .     S
V19     V24    10.0   .     S
V19     V23    10.0   .     S
V20     V23    10.0   1_565     S
V20     V24    10.0   .     S
V21     V18    10.0   1_545     S
V21     V5    10.0   1_554     S
V21     V14    10.0   1_545     S
V22     V6    10.0   1_554     S
V23     V20    10.0   1_545     S
V23     V7    10.0   1_554     S
V23     V13    10.0   1_655     S
V23     V16    10.0   1_545     S
V24     V8    10.0   1_554     S
V24     V14    10.0   1_655     S
