data_smk
_audit_creation_date              2019-12-31
_audit_creation_method            'Pymatgen'
_symmetry_space_group_name_H-M    'P1'
_symmetry_Int_Tables_number       1
loop_
_symmetry_equiv_pos_as_xyz
  x,y,z
_cell_length_a                    26.5063
_cell_length_b                    26.5063
_cell_length_c                    30.0
_cell_angle_alpha                 90.0
_cell_angle_beta                 90.0
_cell_angle_gamma                 120.0
loop_
_atom_site_label
_atom_site_type_symbol
_atom_site_fract_x
_atom_site_fract_y
_atom_site_fract_z
V1     V     0.2148   0.7852   0.1389
V2     V     0.2148   0.7852   0.4722
V3     V     0.2148   0.7852   0.8056
V4     V     0.2148   0.4295   0.25
V5     V     0.2148   0.4295   0.5833
V6     V     0.2148   0.4295   0.9167
V7     V     0.5705   0.7852   0.0278
V8     V     0.5705   0.7852   0.3611
V9     V     0.5705   0.7852   0.6944
V10     V     0.7852   0.2148   0.3056
V11     V     0.7852   0.2148   0.6389
V12     V     0.7852   0.2148   0.9722
V13     V     0.7852   0.5705   0.0833
V14     V     0.7852   0.5705   0.4167
V15     V     0.7852   0.5705   0.75
V16     V     0.4295   0.2148   0.1944
V17     V     0.4295   0.2148   0.5278
V18     V     0.4295   0.2148   0.8611
loop_
_geom_bond_atom_site_label_1
_geom_bond_atom_site_label_2
_geom_bond_distance
_geom_bond_site_symmetry_2
_ccdc_geom_bond_type
V1     V7    10.0   .     S
V1     V4    10.0   .     S
V1     V2    10.0   .     S
V1     V3    10.0   1_554     S
V1     V13    10.0   1_455     S
V1     V16    10.0   1_565     S
V2     V8    10.0   .     S
V2     V5    10.0   .     S
V2     V3    10.0   .     S
V2     V14    10.0   1_455     S
V2     V17    10.0   1_565     S
V3     V9    10.0   .     S
V3     V6    10.0   .     S
V3     V1    10.0   1_556     S
V3     V15    10.0   1_455     S
V3     V18    10.0   1_565     S
V4     V8    10.0   .     S
V4     V6    10.0   1_554     S
V4     V5    10.0   .     S
V4     V16    10.0   .     S
V4     V10    10.0   1_455     S
V5     V9    10.0   .     S
V5     V6    10.0   .     S
V5     V17    10.0   .     S
V5     V11    10.0   1_455     S
V6     V7    10.0   1_556     S
V6     V4    10.0   1_556     S
V6     V18    10.0   .     S
V6     V12    10.0   1_455     S
V7     V6    10.0   1_554     S
V7     V8    10.0   .     S
V7     V9    10.0   1_554     S
V7     V12    10.0   1_564     S
V7     V13    10.0   .     S
V8     V9    10.0   .     S
V8     V10    10.0   1_565     S
V8     V14    10.0   .     S
V9     V7    10.0   1_556     S
V9     V11    10.0   1_565     S
V9     V15    10.0   .     S
V10     V8    10.0   1_545     S
V10     V16    10.0   .     S
V10     V14    10.0   .     S
V10     V12    10.0   1_554     S
V10     V11    10.0   .     S
V10     V4    10.0   1_655     S
V11     V9    10.0   1_545     S
V11     V17    10.0   .     S
V11     V15    10.0   .     S
V11     V12    10.0   .     S
V11     V5    10.0   1_655     S
V12     V7    10.0   1_546     S
V12     V18    10.0   .     S
V12     V13    10.0   1_556     S
V12     V10    10.0   1_556     S
V12     V6    10.0   1_655     S
V13     V1    10.0   1_655     S
V13     V12    10.0   1_554     S
V13     V16    10.0   .     S
V13     V14    10.0   .     S
V13     V15    10.0   1_554     S
V14     V2    10.0   1_655     S
V14     V17    10.0   .     S
V14     V15    10.0   .     S
V15     V3    10.0   1_655     S
V15     V18    10.0   .     S
V15     V13    10.0   1_556     S
V16     V18    10.0   1_554     S
V16     V17    10.0   .     S
V16     V1    10.0   1_545     S
V17     V18    10.0   .     S
V17     V2    10.0   1_545     S
V18     V16    10.0   1_556     S
V18     V3    10.0   1_545     S
