data_smm
_audit_creation_date              2019-12-31
_audit_creation_method            'Pymatgen'
_symmetry_space_group_name_H-M    'P1'
_symmetry_Int_Tables_number       1
loop_
_symmetry_equiv_pos_as_xyz
  x,y,z
_cell_length_a                    33.6504
_cell_length_b                    33.6504
_cell_length_c                    30.0
_cell_angle_alpha                 90.0
_cell_angle_beta                 90.0
_cell_angle_gamma                 120.0
loop_
_atom_site_label
_atom_site_type_symbol
_atom_site_fract_x
_atom_site_fract_y
_atom_site_fract_z
V1     V     0.8382   0.3333   0.1111
V2     V     0.8382   0.3333   0.4444
V3     V     0.8382   0.3333   0.7778
V4     V     0.4951   0.1618   0.1111
V5     V     0.4951   0.1618   0.4444
V6     V     0.4951   0.1618   0.7778
V7     V     0.6667   0.5049   0.1111
V8     V     0.6667   0.5049   0.4444
V9     V     0.6667   0.5049   0.7778
V10     V     0.3333   0.8382   0.2222
V11     V     0.3333   0.8382   0.5556
V12     V     0.3333   0.8382   0.8889
V13     V     0.1618   0.4951   0.2222
V14     V     0.1618   0.4951   0.5556
V15     V     0.1618   0.4951   0.8889
V16     V     0.5049   0.6667   0.2222
V17     V     0.5049   0.6667   0.5556
V18     V     0.5049   0.6667   0.8889
V19     V     0.1716   0.0   0.0
V20     V     0.1716   0.0   0.3333
V21     V     0.1716   0.0   0.6667
V22     V     0.0   0.1716   0.0
V23     V     0.0   0.1716   0.3333
V24     V     0.0   0.1716   0.6667
V25     V     0.8284   0.8284   0.0
V26     V     0.8284   0.8284   0.3333
V27     V     0.8284   0.8284   0.6667
loop_
_geom_bond_atom_site_label_1
_geom_bond_atom_site_label_2
_geom_bond_distance
_geom_bond_site_symmetry_2
_ccdc_geom_bond_type
V1     V13    10.0   1_655     S
V1     V4    10.0   .     S
V1     V7    10.0   .     S
V1     V22    10.0   1_655     S
V1     V2    10.0   .     S
V1     V3    10.0   1_554     S
V2     V14    10.0   1_655     S
V2     V5    10.0   .     S
V2     V8    10.0   .     S
V2     V23    10.0   1_655     S
V2     V3    10.0   .     S
V3     V15    10.0   1_655     S
V3     V6    10.0   .     S
V3     V9    10.0   .     S
V3     V24    10.0   1_655     S
V3     V1    10.0   1_556     S
V4     V19    10.0   .     S
V4     V10    10.0   1_545     S
V4     V7    10.0   .     S
V4     V5    10.0   .     S
V4     V6    10.0   1_554     S
V5     V20    10.0   .     S
V5     V11    10.0   1_545     S
V5     V8    10.0   .     S
V5     V6    10.0   .     S
V6     V21    10.0   .     S
V6     V12    10.0   1_545     S
V6     V9    10.0   .     S
V6     V4    10.0   1_556     S
V7     V25    10.0   .     S
V7     V16    10.0   .     S
V7     V8    10.0   .     S
V7     V9    10.0   1_554     S
V8     V26    10.0   .     S
V8     V17    10.0   .     S
V8     V9    10.0   .     S
V9     V27    10.0   .     S
V9     V18    10.0   .     S
V9     V7    10.0   1_556     S
V10     V4    10.0   1_565     S
V10     V16    10.0   .     S
V10     V13    10.0   .     S
V10     V20    10.0   1_565     S
V10     V12    10.0   1_554     S
V10     V11    10.0   .     S
V11     V5    10.0   1_565     S
V11     V17    10.0   .     S
V11     V14    10.0   .     S
V11     V21    10.0   1_565     S
V11     V12    10.0   .     S
V12     V6    10.0   1_565     S
V12     V18    10.0   .     S
V12     V15    10.0   .     S
V12     V19    10.0   1_566     S
V12     V10    10.0   1_556     S
V13     V23    10.0   .     S
V13     V1    10.0   1_455     S
V13     V16    10.0   .     S
V13     V15    10.0   1_554     S
V13     V14    10.0   .     S
V14     V24    10.0   .     S
V14     V2    10.0   1_455     S
V14     V17    10.0   .     S
V14     V15    10.0   .     S
V15     V22    10.0   1_556     S
V15     V3    10.0   1_455     S
V15     V18    10.0   .     S
V15     V13    10.0   1_556     S
V16     V26    10.0   .     S
V16     V18    10.0   1_554     S
V16     V17    10.0   .     S
V17     V27    10.0   .     S
V17     V18    10.0   .     S
V18     V25    10.0   1_556     S
V18     V16    10.0   1_556     S
V19     V12    10.0   1_544     S
V19     V22    10.0   .     S
V19     V25    10.0   1_445     S
V19     V20    10.0   .     S
V19     V21    10.0   1_554     S
V20     V10    10.0   1_545     S
V20     V23    10.0   .     S
V20     V26    10.0   1_445     S
V20     V21    10.0   .     S
V21     V11    10.0   1_545     S
V21     V24    10.0   .     S
V21     V27    10.0   1_445     S
V21     V19    10.0   1_556     S
V22     V15    10.0   1_554     S
V22     V1    10.0   1_455     S
V22     V25    10.0   1_445     S
V22     V23    10.0   .     S
V22     V24    10.0   1_554     S
V23     V2    10.0   1_455     S
V23     V26    10.0   1_445     S
V23     V24    10.0   .     S
V24     V3    10.0   1_455     S
V24     V27    10.0   1_445     S
V24     V22    10.0   1_556     S
V25     V18    10.0   1_554     S
V25     V22    10.0   1_665     S
V25     V19    10.0   1_665     S
V25     V26    10.0   .     S
V25     V27    10.0   1_554     S
V26     V23    10.0   1_665     S
V26     V20    10.0   1_665     S
V26     V27    10.0   .     S
V27     V24    10.0   1_665     S
V27     V21    10.0   1_665     S
V27     V25    10.0   1_556     S
