data_smn
_audit_creation_date              2019-12-31
_audit_creation_method            'Pymatgen'
_symmetry_space_group_name_H-M    'P1'
_symmetry_Int_Tables_number       1
loop_
_symmetry_equiv_pos_as_xyz
  x,y,z
_cell_length_a                    38.73
_cell_length_b                    38.73
_cell_length_c                    25.5816
_cell_angle_alpha                 90.0
_cell_angle_beta                 90.0
_cell_angle_gamma                 120.0
loop_
_atom_site_label
_atom_site_type_symbol
_atom_site_fract_x
_atom_site_fract_y
_atom_site_fract_z
V1     V     0.1348   0.4682   0.2083
V2     V     0.1348   0.4682   0.7083
V3     V     1.0   0.1985   0.375
V4     V     1.0   0.1985   0.875
V5     V     0.8652   0.3333   0.0417
V6     V     0.8652   0.3333   0.5417
V7     V     0.8652   0.5318   0.2917
V8     V     0.8652   0.5318   0.7917
V9     V     0.1348   0.6667   0.4583
V10     V     0.1348   0.6667   0.9583
V11     V     0.0   0.8015   0.125
V12     V     0.0   0.8015   0.625
V13     V     0.3333   0.8652   0.2083
V14     V     0.3333   0.8652   0.7083
V15     V     0.1985   0.0   0.375
V16     V     0.1985   0.0   0.875
V17     V     0.4682   0.1348   0.0417
V18     V     0.4682   0.1348   0.5417
V19     V     0.8015   0.0   0.125
V20     V     0.8015   0.0   0.625
V21     V     0.5318   0.8652   0.4583
V22     V     0.5318   0.8652   0.9583
V23     V     0.6667   0.1348   0.2917
V24     V     0.6667   0.1348   0.7917
V25     V     0.4682   0.3333   0.2917
V26     V     0.4682   0.3333   0.7917
V27     V     0.1985   0.1985   0.125
V28     V     0.1985   0.1985   0.625
V29     V     0.3333   0.4682   0.4583
V30     V     0.3333   0.4682   0.9583
V31     V     0.5318   0.6667   0.2083
V32     V     0.5318   0.6667   0.7083
V33     V     0.6667   0.5318   0.0417
V34     V     0.6667   0.5318   0.5417
V35     V     0.8015   0.8015   0.375
V36     V     0.8015   0.8015   0.875
loop_
_geom_bond_atom_site_label_1
_geom_bond_atom_site_label_2
_geom_bond_distance
_geom_bond_site_symmetry_2
_ccdc_geom_bond_type
V1     V9    10.0   .     S
V1     V30    10.0   1_554     S
V1     V3    10.0   1_455     S
V1     V5    10.0   1_455     S
V1     V10    10.0   1_554     S
V1     V29    10.0   .     S
V2     V10    10.0   .     S
V2     V29    10.0   .     S
V2     V4    10.0   1_455     S
V2     V6    10.0   1_455     S
V2     V9    10.0   .     S
V2     V30    10.0   .     S
V3     V1    10.0   1_655     S
V3     V19    10.0   .     S
V3     V28    10.0   1_655     S
V3     V6    10.0   .     S
V3     V20    10.0   .     S
V3     V27    10.0   1_655     S
V4     V2    10.0   1_655     S
V4     V20    10.0   .     S
V4     V27    10.0   1_656     S
V4     V5    10.0   1_556     S
V4     V19    10.0   1_556     S
V4     V28    10.0   1_655     S
V5     V1    10.0   1_655     S
V5     V4    10.0   1_554     S
V5     V8    10.0   1_554     S
V5     V23    10.0   .     S
V5     V7    10.0   .     S
V5     V24    10.0   1_554     S
V6     V2    10.0   1_655     S
V6     V7    10.0   .     S
V6     V24    10.0   .     S
V6     V8    10.0   .     S
V6     V23    10.0   .     S
V7     V9    10.0   1_655     S
V7     V34    10.0   .     S
V7     V11    10.0   1_655     S
V7     V33    10.0   .     S
V8     V5    10.0   1_556     S
V8     V10    10.0   1_655     S
V8     V33    10.0   1_556     S
V8     V12    10.0   1_655     S
V8     V34    10.0   .     S
V9     V7    10.0   1_455     S
V9     V13    10.0   .     S
V9     V12    10.0   .     S
V9     V14    10.0   .     S
V10     V8    10.0   1_455     S
V10     V14    10.0   .     S
V10     V1    10.0   1_556     S
V10     V11    10.0   1_556     S
V10     V13    10.0   1_556     S
V11     V7    10.0   1_455     S
V11     V10    10.0   1_554     S
V11     V15    10.0   1_565     S
V11     V36    10.0   1_454     S
V11     V16    10.0   1_564     S
V11     V35    10.0   1_455     S
V12     V8    10.0   1_455     S
V12     V16    10.0   1_565     S
V12     V35    10.0   1_455     S
V12     V15    10.0   1_565     S
V12     V36    10.0   1_455     S
V13     V17    10.0   1_565     S
V13     V15    10.0   1_565     S
V13     V21    10.0   .     S
V13     V10    10.0   1_554     S
V13     V22    10.0   1_554     S
V14     V18    10.0   1_565     S
V14     V16    10.0   1_565     S
V14     V22    10.0   .     S
V14     V21    10.0   .     S
V15     V11    10.0   1_545     S
V15     V13    10.0   1_545     S
V15     V27    10.0   .     S
V15     V12    10.0   1_545     S
V15     V18    10.0   .     S
V15     V28    10.0   .     S
V16     V12    10.0   1_545     S
V16     V14    10.0   1_545     S
V16     V28    10.0   .     S
V16     V11    10.0   1_546     S
V16     V17    10.0   1_556     S
V16     V27    10.0   1_556     S
V17     V13    10.0   1_545     S
V17     V16    10.0   1_554     S
V17     V25    10.0   .     S
V17     V24    10.0   1_554     S
V17     V23    10.0   .     S
V17     V26    10.0   1_554     S
V18     V14    10.0   1_545     S
V18     V26    10.0   .     S
V18     V23    10.0   .     S
V18     V24    10.0   .     S
V18     V25    10.0   .     S
V19     V22    10.0   1_544     S
V19     V23    10.0   .     S
V19     V35    10.0   1_545     S
V19     V4    10.0   1_554     S
V19     V36    10.0   1_544     S
V20     V21    10.0   1_545     S
V20     V24    10.0   .     S
V20     V36    10.0   1_545     S
V20     V35    10.0   1_545     S
V21     V20    10.0   1_565     S
V21     V31    10.0   .     S
V21     V23    10.0   1_565     S
V21     V32    10.0   .     S
V22     V19    10.0   1_566     S
V22     V13    10.0   1_556     S
V22     V32    10.0   .     S
V22     V24    10.0   1_565     S
V22     V31    10.0   1_556     S
V23     V21    10.0   1_545     S
V24     V17    10.0   1_556     S
V24     V22    10.0   1_545     S
V24     V5    10.0   1_556     S
V25     V29    10.0   .     S
V25     V27    10.0   .     S
V25     V33    10.0   .     S
V25     V34    10.0   .     S
V26     V30    10.0   .     S
V26     V28    10.0   .     S
V26     V34    10.0   .     S
V26     V17    10.0   1_556     S
V26     V33    10.0   1_556     S
V27     V4    10.0   1_454     S
V27     V3    10.0   1_455     S
V27     V16    10.0   1_554     S
V27     V30    10.0   1_554     S
V28     V3    10.0   1_455     S
V28     V4    10.0   1_455     S
V28     V29    10.0   .     S
V29     V32    10.0   .     S
V29     V31    10.0   .     S
V30     V1    10.0   1_556     S
V30     V27    10.0   1_556     S
V30     V31    10.0   1_556     S
V30     V32    10.0   .     S
V31     V30    10.0   1_554     S
V31     V22    10.0   1_554     S
V31     V33    10.0   .     S
V31     V35    10.0   .     S
V32     V34    10.0   .     S
V32     V36    10.0   .     S
V33     V8    10.0   1_554     S
V33     V26    10.0   1_554     S
V33     V36    10.0   1_554     S
V34     V35    10.0   .     S
V35     V12    10.0   1_655     S
V35     V19    10.0   1_565     S
V35     V20    10.0   1_565     S
V35     V11    10.0   1_655     S
V36     V11    10.0   1_656     S
V36     V20    10.0   1_565     S
V36     V33    10.0   1_556     S
V36     V19    10.0   1_566     S
V36     V12    10.0   1_655     S
