data_smr
_audit_creation_date              2019-12-31
_audit_creation_method            'Pymatgen'
_symmetry_space_group_name_H-M    'P1'
_symmetry_Int_Tables_number       1
loop_
_symmetry_equiv_pos_as_xyz
  x,y,z
_cell_length_a                    49.1564
_cell_length_b                    49.1564
_cell_length_c                    30.0003
_cell_angle_alpha                 90.0
_cell_angle_beta                 90.0
_cell_angle_gamma                 120.0
loop_
_atom_site_label
_atom_site_type_symbol
_atom_site_fract_x
_atom_site_fract_y
_atom_site_fract_z
V1     V     0.2175   0.7825   0.1944
V2     V     0.2175   0.7825   0.5278
V3     V     0.2175   0.7825   0.8611
V4     V     0.1158   0.8842   0.0278
V5     V     0.1158   0.8842   0.3611
V6     V     0.1158   0.8842   0.6944
V7     V     0.4491   0.8983   0.25
V8     V     0.4491   0.8983   0.5833
V9     V     0.4491   0.8983   0.9167
V10     V     0.5509   0.1017   0.0833
V11     V     0.5509   0.1017   0.4167
V12     V     0.5509   0.1017   0.75
V13     V     0.565   0.7825   0.1944
V14     V     0.565   0.7825   0.5278
V15     V     0.565   0.7825   0.8611
V16     V     0.7684   0.8842   0.0278
V17     V     0.7684   0.8842   0.3611
V18     V     0.7684   0.8842   0.6944
V19     V     0.4491   0.5509   0.25
V20     V     0.4491   0.5509   0.5833
V21     V     0.4491   0.5509   0.9167
V22     V     0.5509   0.4491   0.0833
V23     V     0.5509   0.4491   0.4167
V24     V     0.5509   0.4491   0.75
V25     V     0.7825   0.565   0.1389
V26     V     0.7825   0.565   0.4722
V27     V     0.7825   0.565   0.8056
V28     V     0.8842   0.7684   0.3056
V29     V     0.8842   0.7684   0.6389
V30     V     0.8842   0.7684   0.9722
V31     V     0.8983   0.4491   0.0833
V32     V     0.8983   0.4491   0.4167
V33     V     0.8983   0.4491   0.75
V34     V     0.1017   0.5509   0.25
V35     V     0.1017   0.5509   0.5833
V36     V     0.1017   0.5509   0.9167
V37     V     0.7825   0.2175   0.1389
V38     V     0.7825   0.2175   0.4722
V39     V     0.7825   0.2175   0.8056
V40     V     0.8842   0.1158   0.3056
V41     V     0.8842   0.1158   0.6389
V42     V     0.8842   0.1158   0.9722
V43     V     0.435   0.2175   0.1389
V44     V     0.435   0.2175   0.4722
V45     V     0.435   0.2175   0.8056
V46     V     0.2316   0.1158   0.3056
V47     V     0.2316   0.1158   0.6389
V48     V     0.2316   0.1158   0.9722
V49     V     0.2175   0.435   0.1944
V50     V     0.2175   0.435   0.5278
V51     V     0.2175   0.435   0.8611
V52     V     0.1158   0.2316   0.0278
V53     V     0.1158   0.2316   0.3611
V54     V     0.1158   0.2316   0.6944
loop_
_geom_bond_atom_site_label_1
_geom_bond_atom_site_label_2
_geom_bond_distance
_geom_bond_site_symmetry_2
_ccdc_geom_bond_type
V1     V4    10.0   .     S
V1     V5    10.0   .     S
V1     V3    10.0   1_554     S
V1     V2    10.0   .     S
V1     V7    10.0   .     S
V1     V34    10.0   .     S
V2     V5    10.0   .     S
V2     V6    10.0   .     S
V2     V3    10.0   .     S
V2     V8    10.0   .     S
V2     V35    10.0   .     S
V3     V6    10.0   .     S
V3     V4    10.0   1_556     S
V3     V1    10.0   1_556     S
V3     V9    10.0   .     S
V3     V36    10.0   .     S
V4     V3    10.0   1_554     S
V4     V5    10.0   .     S
V4     V6    10.0   1_554     S
V4     V48    10.0   1_564     S
V4     V30    10.0   1_454     S
V5     V6    10.0   .     S
V5     V46    10.0   1_565     S
V5     V28    10.0   1_455     S
V6     V4    10.0   1_556     S
V6     V47    10.0   1_565     S
V6     V29    10.0   1_455     S
V7     V10    10.0   1_565     S
V7     V11    10.0   1_565     S
V7     V9    10.0   1_554     S
V7     V8    10.0   .     S
V7     V13    10.0   .     S
V8     V11    10.0   1_565     S
V8     V12    10.0   1_565     S
V8     V9    10.0   .     S
V8     V14    10.0   .     S
V9     V12    10.0   1_565     S
V9     V10    10.0   1_566     S
V9     V7    10.0   1_556     S
V9     V15    10.0   .     S
V10     V7    10.0   1_545     S
V10     V9    10.0   1_544     S
V10     V11    10.0   .     S
V10     V12    10.0   1_554     S
V10     V37    10.0   .     S
V10     V43    10.0   .     S
V11     V8    10.0   1_545     S
V11     V7    10.0   1_545     S
V11     V12    10.0   .     S
V11     V38    10.0   .     S
V11     V44    10.0   .     S
V12     V9    10.0   1_545     S
V12     V8    10.0   1_545     S
V12     V10    10.0   1_556     S
V12     V39    10.0   .     S
V12     V45    10.0   .     S
V13     V17    10.0   .     S
V13     V16    10.0   .     S
V13     V15    10.0   1_554     S
V13     V14    10.0   .     S
V13     V19    10.0   .     S
V14     V18    10.0   .     S
V14     V17    10.0   .     S
V14     V15    10.0   .     S
V14     V20    10.0   .     S
V15     V16    10.0   1_556     S
V15     V18    10.0   .     S
V15     V13    10.0   1_556     S
V15     V21    10.0   .     S
V16     V15    10.0   1_554     S
V16     V17    10.0   .     S
V16     V18    10.0   1_554     S
V16     V42    10.0   1_564     S
V16     V30    10.0   1_554     S
V17     V18    10.0   .     S
V17     V40    10.0   1_565     S
V17     V28    10.0   .     S
V18     V16    10.0   1_556     S
V18     V41    10.0   1_565     S
V18     V29    10.0   .     S
V19     V22    10.0   .     S
V19     V23    10.0   .     S
V19     V21    10.0   1_554     S
V19     V20    10.0   .     S
V19     V49    10.0   .     S
V20     V23    10.0   .     S
V20     V24    10.0   .     S
V20     V21    10.0   .     S
V20     V50    10.0   .     S
V21     V24    10.0   .     S
V21     V22    10.0   1_556     S
V21     V19    10.0   1_556     S
V21     V51    10.0   .     S
V22     V21    10.0   1_554     S
V22     V23    10.0   .     S
V22     V24    10.0   1_554     S
V22     V25    10.0   .     S
V22     V43    10.0   .     S
V23     V24    10.0   .     S
V23     V26    10.0   .     S
V23     V44    10.0   .     S
V24     V22    10.0   1_556     S
V24     V27    10.0   .     S
V24     V45    10.0   .     S
V25     V28    10.0   .     S
V25     V30    10.0   1_554     S
V25     V26    10.0   .     S
V25     V27    10.0   1_554     S
V25     V31    10.0   .     S
V26     V29    10.0   .     S
V26     V28    10.0   .     S
V26     V27    10.0   .     S
V26     V32    10.0   .     S
V27     V30    10.0   .     S
V27     V29    10.0   .     S
V27     V25    10.0   1_556     S
V27     V33    10.0   .     S
V28     V30    10.0   1_554     S
V28     V29    10.0   .     S
V28     V5    10.0   1_655     S
V29     V30    10.0   .     S
V29     V6    10.0   1_655     S
V30     V25    10.0   1_556     S
V30     V28    10.0   1_556     S
V30     V16    10.0   1_556     S
V30     V4    10.0   1_656     S
V31     V36    10.0   1_654     S
V31     V34    10.0   1_655     S
V31     V32    10.0   .     S
V31     V33    10.0   1_554     S
V31     V37    10.0   .     S
V32     V34    10.0   1_655     S
V32     V35    10.0   1_655     S
V32     V33    10.0   .     S
V32     V38    10.0   .     S
V33     V35    10.0   1_655     S
V33     V36    10.0   1_655     S
V33     V31    10.0   1_556     S
V33     V39    10.0   .     S
V34     V32    10.0   1_455     S
V34     V31    10.0   1_455     S
V34     V36    10.0   1_554     S
V34     V35    10.0   .     S
V34     V49    10.0   .     S
V35     V33    10.0   1_455     S
V35     V32    10.0   1_455     S
V35     V36    10.0   .     S
V35     V50    10.0   .     S
V36     V31    10.0   1_456     S
V36     V33    10.0   1_455     S
V36     V34    10.0   1_556     S
V36     V51    10.0   .     S
V37     V40    10.0   .     S
V37     V42    10.0   1_554     S
V37     V38    10.0   .     S
V37     V39    10.0   1_554     S
V38     V41    10.0   .     S
V38     V40    10.0   .     S
V38     V39    10.0   .     S
V39     V42    10.0   .     S
V39     V41    10.0   .     S
V39     V37    10.0   1_556     S
V40     V17    10.0   1_545     S
V40     V42    10.0   1_554     S
V40     V41    10.0   .     S
V40     V53    10.0   1_655     S
V41     V18    10.0   1_545     S
V41     V42    10.0   .     S
V41     V54    10.0   1_655     S
V42     V16    10.0   1_546     S
V42     V37    10.0   1_556     S
V42     V40    10.0   1_556     S
V42     V52    10.0   1_656     S
V43     V46    10.0   .     S
V43     V48    10.0   1_554     S
V43     V44    10.0   .     S
V43     V45    10.0   1_554     S
V44     V47    10.0   .     S
V44     V46    10.0   .     S
V44     V45    10.0   .     S
V45     V48    10.0   .     S
V45     V47    10.0   .     S
V45     V43    10.0   1_556     S
V46     V5    10.0   1_545     S
V46     V48    10.0   1_554     S
V46     V47    10.0   .     S
V46     V53    10.0   .     S
V47     V6    10.0   1_545     S
V47     V48    10.0   .     S
V47     V54    10.0   .     S
V48     V4    10.0   1_546     S
V48     V43    10.0   1_556     S
V48     V46    10.0   1_556     S
V48     V52    10.0   1_556     S
V49     V52    10.0   .     S
V49     V53    10.0   .     S
V49     V51    10.0   1_554     S
V49     V50    10.0   .     S
V50     V53    10.0   .     S
V50     V54    10.0   .     S
V50     V51    10.0   .     S
V51     V54    10.0   .     S
V51     V52    10.0   1_556     S
V51     V49    10.0   1_556     S
V52     V51    10.0   1_554     S
V52     V53    10.0   .     S
V52     V54    10.0   1_554     S
V52     V48    10.0   1_554     S
V52     V42    10.0   1_454     S
V53     V54    10.0   .     S
V53     V40    10.0   1_455     S
V54     V52    10.0   1_556     S
V54     V41    10.0   1_455     S
