data_smu
_audit_creation_date              2019-12-31
_audit_creation_method            'Pymatgen'
_symmetry_space_group_name_H-M    'P1'
_symmetry_Int_Tables_number       1
loop_
_symmetry_equiv_pos_as_xyz
  x,y,z
_cell_length_a                    39.0688
_cell_length_b                    39.0688
_cell_length_c                    37.4792
_cell_angle_alpha                 90.0
_cell_angle_beta                 90.0
_cell_angle_gamma                 120.0
loop_
_atom_site_label
_atom_site_type_symbol
_atom_site_fract_x
_atom_site_fract_y
_atom_site_fract_z
V1     V     0.4484   0.115   0.125
V2     V     0.4484   0.115   0.625
V3     V     0.4484   0.615   0.125
V4     V     0.4484   0.615   0.625
V5     V     0.9484   0.115   0.125
V6     V     0.9484   0.115   0.625
V7     V     0.9484   0.615   0.125
V8     V     0.9484   0.615   0.625
V9     V     0.385   0.3333   0.125
V10     V     0.385   0.3333   0.625
V11     V     0.385   0.8333   0.125
V12     V     0.385   0.8333   0.625
V13     V     0.885   0.3333   0.125
V14     V     0.885   0.3333   0.625
V15     V     0.885   0.8333   0.125
V16     V     0.885   0.8333   0.625
V17     V     0.1667   0.0516   0.125
V18     V     0.1667   0.0516   0.625
V19     V     0.1667   0.5516   0.125
V20     V     0.1667   0.5516   0.625
V21     V     0.6667   0.0516   0.125
V22     V     0.6667   0.0516   0.625
V23     V     0.6667   0.5516   0.125
V24     V     0.6667   0.5516   0.625
V25     V     0.3333   0.385   0.375
V26     V     0.3333   0.385   0.875
V27     V     0.3333   0.885   0.375
V28     V     0.3333   0.885   0.875
V29     V     0.8333   0.385   0.375
V30     V     0.8333   0.385   0.875
V31     V     0.8333   0.885   0.375
V32     V     0.8333   0.885   0.875
V33     V     0.115   0.4484   0.375
V34     V     0.115   0.4484   0.875
V35     V     0.115   0.9484   0.375
V36     V     0.115   0.9484   0.875
V37     V     0.615   0.4484   0.375
V38     V     0.615   0.4484   0.875
V39     V     0.615   0.9484   0.375
V40     V     0.615   0.9484   0.875
V41     V     0.0516   0.1667   0.375
V42     V     0.0516   0.1667   0.875
V43     V     0.0516   0.6667   0.375
V44     V     0.0516   0.6667   0.875
V45     V     0.5516   0.1667   0.375
V46     V     0.5516   0.1667   0.875
V47     V     0.5516   0.6667   0.375
V48     V     0.5516   0.6667   0.875
loop_
_geom_bond_atom_site_label_1
_geom_bond_atom_site_label_2
_geom_bond_distance
_geom_bond_site_symmetry_2
_ccdc_geom_bond_type
V1     V21    10.0   .     S
V1     V11    10.0   1_545     S
V1     V17    10.0   .     S
V1     V9    10.0   .     S
V1     V46    10.0   1_554     S
V1     V45    10.0   .     S
V2     V22    10.0   .     S
V2     V12    10.0   1_545     S
V2     V18    10.0   .     S
V2     V10    10.0   .     S
V2     V45    10.0   .     S
V2     V46    10.0   .     S
V3     V23    10.0   .     S
V3     V9    10.0   .     S
V3     V19    10.0   .     S
V3     V11    10.0   .     S
V3     V48    10.0   1_554     S
V3     V47    10.0   .     S
V4     V24    10.0   .     S
V4     V10    10.0   .     S
V4     V20    10.0   .     S
V4     V12    10.0   .     S
V4     V47    10.0   .     S
V4     V48    10.0   .     S
V5     V17    10.0   1_655     S
V5     V15    10.0   1_545     S
V5     V21    10.0   .     S
V5     V13    10.0   .     S
V5     V42    10.0   1_654     S
V5     V41    10.0   1_655     S
V6     V18    10.0   1_655     S
V6     V16    10.0   1_545     S
V6     V22    10.0   .     S
V6     V14    10.0   .     S
V6     V41    10.0   1_655     S
V6     V42    10.0   1_655     S
V7     V19    10.0   1_655     S
V7     V13    10.0   .     S
V7     V23    10.0   .     S
V7     V15    10.0   .     S
V7     V44    10.0   1_654     S
V7     V43    10.0   1_655     S
V8     V20    10.0   1_655     S
V8     V14    10.0   .     S
V8     V24    10.0   .     S
V8     V16    10.0   .     S
V8     V43    10.0   1_655     S
V8     V44    10.0   1_655     S
V9     V23    10.0   .     S
V9     V17    10.0   .     S
V9     V25    10.0   .     S
V9     V26    10.0   1_554     S
V10     V24    10.0   .     S
V10     V18    10.0   .     S
V10     V26    10.0   .     S
V10     V25    10.0   .     S
V11     V1    10.0   1_565     S
V11     V21    10.0   1_565     S
V11     V19    10.0   .     S
V11     V27    10.0   .     S
V11     V28    10.0   1_554     S
V12     V2    10.0   1_565     S
V12     V22    10.0   1_565     S
V12     V20    10.0   .     S
V12     V28    10.0   .     S
V12     V27    10.0   .     S
V13     V19    10.0   1_655     S
V13     V21    10.0   .     S
V13     V29    10.0   .     S
V13     V30    10.0   1_554     S
V14     V20    10.0   1_655     S
V14     V22    10.0   .     S
V14     V30    10.0   .     S
V14     V29    10.0   .     S
V15     V5    10.0   1_565     S
V15     V17    10.0   1_665     S
V15     V23    10.0   .     S
V15     V31    10.0   .     S
V15     V32    10.0   1_554     S
V16     V6    10.0   1_565     S
V16     V18    10.0   1_665     S
V16     V24    10.0   .     S
V16     V32    10.0   .     S
V16     V31    10.0   .     S
V17     V5    10.0   1_455     S
V17     V15    10.0   1_445     S
V17     V36    10.0   1_544     S
V17     V35    10.0   1_545     S
V18     V6    10.0   1_455     S
V18     V16    10.0   1_445     S
V18     V35    10.0   1_545     S
V18     V36    10.0   1_545     S
V19     V7    10.0   1_455     S
V19     V13    10.0   1_455     S
V19     V34    10.0   1_554     S
V19     V33    10.0   .     S
V20     V8    10.0   1_455     S
V20     V14    10.0   1_455     S
V20     V33    10.0   .     S
V20     V34    10.0   .     S
V21     V11    10.0   1_545     S
V21     V40    10.0   1_544     S
V21     V39    10.0   1_545     S
V22     V12    10.0   1_545     S
V22     V39    10.0   1_545     S
V22     V40    10.0   1_545     S
V23     V38    10.0   1_554     S
V23     V37    10.0   .     S
V24     V37    10.0   .     S
V24     V38    10.0   .     S
V25     V37    10.0   .     S
V25     V41    10.0   .     S
V25     V33    10.0   .     S
V25     V47    10.0   .     S
V26     V38    10.0   .     S
V26     V42    10.0   .     S
V26     V34    10.0   .     S
V26     V48    10.0   .     S
V26     V9    10.0   1_556     S
V27     V39    10.0   .     S
V27     V43    10.0   .     S
V27     V35    10.0   .     S
V27     V45    10.0   1_565     S
V28     V40    10.0   .     S
V28     V44    10.0   .     S
V28     V36    10.0   .     S
V28     V46    10.0   1_565     S
V28     V11    10.0   1_556     S
V29     V33    10.0   1_655     S
V29     V45    10.0   .     S
V29     V37    10.0   .     S
V29     V43    10.0   1_655     S
V30     V34    10.0   1_655     S
V30     V46    10.0   .     S
V30     V38    10.0   .     S
V30     V44    10.0   1_655     S
V30     V13    10.0   1_556     S
V31     V35    10.0   1_655     S
V31     V47    10.0   .     S
V31     V39    10.0   .     S
V31     V41    10.0   1_665     S
V32     V36    10.0   1_655     S
V32     V48    10.0   .     S
V32     V40    10.0   .     S
V32     V42    10.0   1_665     S
V32     V15    10.0   1_556     S
V33     V29    10.0   1_455     S
V33     V43    10.0   .     S
V33     V41    10.0   .     S
V34     V30    10.0   1_455     S
V34     V44    10.0   .     S
V34     V42    10.0   .     S
V34     V19    10.0   1_556     S
V35     V31    10.0   1_455     S
V35     V41    10.0   1_565     S
V35     V43    10.0   .     S
V35     V18    10.0   1_565     S
V35     V17    10.0   1_565     S
V36     V32    10.0   1_455     S
V36     V42    10.0   1_565     S
V36     V44    10.0   .     S
V36     V17    10.0   1_566     S
V36     V18    10.0   1_565     S
V37     V47    10.0   .     S
V37     V45    10.0   .     S
V38     V48    10.0   .     S
V38     V46    10.0   .     S
V38     V23    10.0   1_556     S
V39     V45    10.0   1_565     S
V39     V47    10.0   .     S
V39     V22    10.0   1_565     S
V39     V21    10.0   1_565     S
V40     V46    10.0   1_565     S
V40     V48    10.0   .     S
V40     V21    10.0   1_566     S
V40     V22    10.0   1_565     S
V41     V35    10.0   1_545     S
V41     V31    10.0   1_445     S
V41     V6    10.0   1_455     S
V41     V5    10.0   1_455     S
V42     V36    10.0   1_545     S
V42     V32    10.0   1_445     S
V42     V5    10.0   1_456     S
V42     V6    10.0   1_455     S
V43     V29    10.0   1_455     S
V43     V8    10.0   1_455     S
V43     V7    10.0   1_455     S
V44     V30    10.0   1_455     S
V44     V7    10.0   1_456     S
V44     V8    10.0   1_455     S
V45     V39    10.0   1_545     S
V45     V27    10.0   1_545     S
V46     V40    10.0   1_545     S
V46     V28    10.0   1_545     S
V46     V1    10.0   1_556     S
V48     V3    10.0   1_556     S
