data_snk
_audit_creation_date              2019-12-31
_audit_creation_method            'Pymatgen'
_symmetry_space_group_name_H-M    'P1'
_symmetry_Int_Tables_number       1
loop_
_symmetry_equiv_pos_as_xyz
  x,y,z
_cell_length_a                    27.3861
_cell_length_b                    27.3861
_cell_length_c                    30.0
_cell_angle_alpha                 90.0
_cell_angle_beta                 90.0
_cell_angle_gamma                 90.0
loop_
_atom_site_label
_atom_site_type_symbol
_atom_site_fract_x
_atom_site_fract_y
_atom_site_fract_z
V1     V     0.0   0.0   0.1667
V2     V     0.0   0.0   0.5
V3     V     0.0   0.0   0.8333
V4     V     0.25   0.25   0.0833
V5     V     0.25   0.25   0.4167
V6     V     0.25   0.25   0.75
V7     V     0.25   0.75   0.25
V8     V     0.25   0.75   0.5833
V9     V     0.25   0.75   0.9167
V10     V     0.5   0.0   0.0
V11     V     0.5   0.0   0.3333
V12     V     0.5   0.0   0.6667
V13     V     0.75   0.75   0.25
V14     V     0.75   0.75   0.5833
V15     V     0.75   0.75   0.9167
V16     V     0.75   0.25   0.0833
V17     V     0.75   0.25   0.4167
V18     V     0.75   0.25   0.75
V19     V     0.5   0.5   0.0
V20     V     0.5   0.5   0.3333
V21     V     0.5   0.5   0.6667
V22     V     0.0   0.5   0.1667
V23     V     0.0   0.5   0.5
V24     V     0.0   0.5   0.8333
loop_
_geom_bond_atom_site_label_1
_geom_bond_atom_site_label_2
_geom_bond_distance
_geom_bond_site_symmetry_2
_ccdc_geom_bond_type
V1     V4    10.0   .     S
V1     V7    10.0   1_545     S
V1     V13    10.0   1_445     S
V1     V16    10.0   1_455     S
V1     V3    10.0   1_554     S
V1     V2    10.0   .     S
V2     V5    10.0   .     S
V2     V8    10.0   1_545     S
V2     V14    10.0   1_445     S
V2     V17    10.0   1_455     S
V2     V3    10.0   .     S
V3     V6    10.0   .     S
V3     V9    10.0   1_545     S
V3     V15    10.0   1_445     S
V3     V18    10.0   1_455     S
V3     V1    10.0   1_556     S
V4     V10    10.0   .     S
V4     V19    10.0   .     S
V4     V22    10.0   .     S
V4     V5    10.0   .     S
V4     V6    10.0   1_554     S
V5     V11    10.0   .     S
V5     V20    10.0   .     S
V5     V23    10.0   .     S
V5     V6    10.0   .     S
V6     V12    10.0   .     S
V6     V21    10.0   .     S
V6     V24    10.0   .     S
V6     V4    10.0   1_556     S
V7     V1    10.0   1_565     S
V7     V11    10.0   1_565     S
V7     V20    10.0   .     S
V7     V22    10.0   .     S
V7     V9    10.0   1_554     S
V7     V8    10.0   .     S
V8     V2    10.0   1_565     S
V8     V12    10.0   1_565     S
V8     V21    10.0   .     S
V8     V23    10.0   .     S
V8     V9    10.0   .     S
V9     V3    10.0   1_565     S
V9     V10    10.0   1_566     S
V9     V19    10.0   1_556     S
V9     V24    10.0   .     S
V9     V7    10.0   1_556     S
V10     V9    10.0   1_544     S
V10     V16    10.0   .     S
V10     V15    10.0   1_544     S
V10     V11    10.0   .     S
V10     V12    10.0   1_554     S
V11     V7    10.0   1_545     S
V11     V17    10.0   .     S
V11     V13    10.0   1_545     S
V11     V12    10.0   .     S
V12     V8    10.0   1_545     S
V12     V18    10.0   .     S
V12     V14    10.0   1_545     S
V12     V10    10.0   1_556     S
V13     V1    10.0   1_665     S
V13     V11    10.0   1_565     S
V13     V20    10.0   .     S
V13     V22    10.0   1_655     S
V13     V15    10.0   1_554     S
V13     V14    10.0   .     S
V14     V2    10.0   1_665     S
V14     V12    10.0   1_565     S
V14     V21    10.0   .     S
V14     V23    10.0   1_655     S
V14     V15    10.0   .     S
V15     V3    10.0   1_665     S
V15     V10    10.0   1_566     S
V15     V19    10.0   1_556     S
V15     V24    10.0   1_655     S
V15     V13    10.0   1_556     S
V16     V1    10.0   1_655     S
V16     V19    10.0   .     S
V16     V22    10.0   1_655     S
V16     V17    10.0   .     S
V16     V18    10.0   1_554     S
V17     V2    10.0   1_655     S
V17     V20    10.0   .     S
V17     V23    10.0   1_655     S
V17     V18    10.0   .     S
V18     V3    10.0   1_655     S
V18     V21    10.0   .     S
V18     V24    10.0   1_655     S
V18     V16    10.0   1_556     S
V19     V15    10.0   1_554     S
V19     V9    10.0   1_554     S
V19     V20    10.0   .     S
V19     V21    10.0   1_554     S
V20     V21    10.0   .     S
V21     V19    10.0   1_556     S
V22     V16    10.0   1_455     S
V22     V13    10.0   1_455     S
V22     V24    10.0   1_554     S
V22     V23    10.0   .     S
V23     V17    10.0   1_455     S
V23     V14    10.0   1_455     S
V23     V24    10.0   .     S
V24     V18    10.0   1_455     S
V24     V15    10.0   1_455     S
V24     V22    10.0   1_556     S
