data_snl
_audit_creation_date              2019-12-31
_audit_creation_method            'Pymatgen'
_symmetry_space_group_name_H-M    'P1'
_symmetry_Int_Tables_number       1
loop_
_symmetry_equiv_pos_as_xyz
  x,y,z
_cell_length_a                    39.3648
_cell_length_b                    39.3648
_cell_length_c                    30.0
_cell_angle_alpha                 90.0
_cell_angle_beta                 90.0
_cell_angle_gamma                 90.0
loop_
_atom_site_label
_atom_site_type_symbol
_atom_site_fract_x
_atom_site_fract_y
_atom_site_fract_z
V1     V     0.627   0.877   0.125
V2     V     0.627   0.877   0.4583
V3     V     0.627   0.877   0.7917
V4     V     0.873   0.877   0.0417
V5     V     0.873   0.877   0.375
V6     V     0.873   0.877   0.7083
V7     V     0.873   0.123   0.2917
V8     V     0.873   0.123   0.625
V9     V     0.873   0.123   0.9583
V10     V     0.627   0.123   0.2083
V11     V     0.627   0.123   0.5417
V12     V     0.627   0.123   0.875
V13     V     0.127   0.877   0.0417
V14     V     0.127   0.877   0.375
V15     V     0.127   0.877   0.7083
V16     V     0.373   0.877   0.125
V17     V     0.373   0.877   0.4583
V18     V     0.373   0.877   0.7917
V19     V     0.373   0.123   0.2083
V20     V     0.373   0.123   0.5417
V21     V     0.373   0.123   0.875
V22     V     0.127   0.123   0.2917
V23     V     0.127   0.123   0.625
V24     V     0.127   0.123   0.9583
V25     V     0.873   0.377   0.2917
V26     V     0.873   0.377   0.625
V27     V     0.873   0.377   0.9583
V28     V     0.873   0.623   0.0417
V29     V     0.873   0.623   0.375
V30     V     0.873   0.623   0.7083
V31     V     0.627   0.623   0.125
V32     V     0.627   0.623   0.4583
V33     V     0.627   0.623   0.7917
V34     V     0.627   0.377   0.2083
V35     V     0.627   0.377   0.5417
V36     V     0.627   0.377   0.875
V37     V     0.127   0.623   0.0417
V38     V     0.127   0.623   0.375
V39     V     0.127   0.623   0.7083
V40     V     0.127   0.377   0.2917
V41     V     0.127   0.377   0.625
V42     V     0.127   0.377   0.9583
V43     V     0.373   0.377   0.2083
V44     V     0.373   0.377   0.5417
V45     V     0.373   0.377   0.875
V46     V     0.373   0.623   0.125
V47     V     0.373   0.623   0.4583
V48     V     0.373   0.623   0.7917
loop_
_geom_bond_atom_site_label_1
_geom_bond_atom_site_label_2
_geom_bond_distance
_geom_bond_site_symmetry_2
_ccdc_geom_bond_type
V1     V4    10.0   .     S
V1     V10    10.0   1_565     S
V1     V2    10.0   .     S
V1     V3    10.0   1_554     S
V1     V16    10.0   .     S
V1     V31    10.0   .     S
V2     V5    10.0   .     S
V2     V11    10.0   1_565     S
V2     V3    10.0   .     S
V2     V17    10.0   .     S
V2     V32    10.0   .     S
V3     V6    10.0   .     S
V3     V12    10.0   1_565     S
V3     V1    10.0   1_556     S
V3     V18    10.0   .     S
V3     V33    10.0   .     S
V4     V9    10.0   1_564     S
V4     V5    10.0   .     S
V4     V6    10.0   1_554     S
V4     V13    10.0   1_655     S
V4     V28    10.0   .     S
V5     V7    10.0   1_565     S
V5     V6    10.0   .     S
V5     V14    10.0   1_655     S
V5     V29    10.0   .     S
V6     V8    10.0   1_565     S
V6     V4    10.0   1_556     S
V6     V15    10.0   1_655     S
V6     V30    10.0   .     S
V7     V5    10.0   1_545     S
V7     V10    10.0   .     S
V7     V9    10.0   1_554     S
V7     V8    10.0   .     S
V7     V25    10.0   .     S
V7     V22    10.0   1_655     S
V8     V6    10.0   1_545     S
V8     V11    10.0   .     S
V8     V9    10.0   .     S
V8     V26    10.0   .     S
V8     V23    10.0   1_655     S
V9     V4    10.0   1_546     S
V9     V12    10.0   .     S
V9     V7    10.0   1_556     S
V9     V27    10.0   .     S
V9     V24    10.0   1_655     S
V10     V1    10.0   1_545     S
V10     V12    10.0   1_554     S
V10     V11    10.0   .     S
V10     V34    10.0   .     S
V10     V19    10.0   .     S
V11     V2    10.0   1_545     S
V11     V12    10.0   .     S
V11     V35    10.0   .     S
V11     V20    10.0   .     S
V12     V3    10.0   1_545     S
V12     V10    10.0   1_556     S
V12     V36    10.0   .     S
V12     V21    10.0   .     S
V13     V16    10.0   .     S
V13     V24    10.0   1_564     S
V13     V14    10.0   .     S
V13     V15    10.0   1_554     S
V13     V37    10.0   .     S
V13     V4    10.0   1_455     S
V14     V17    10.0   .     S
V14     V22    10.0   1_565     S
V14     V15    10.0   .     S
V14     V38    10.0   .     S
V14     V5    10.0   1_455     S
V15     V18    10.0   .     S
V15     V23    10.0   1_565     S
V15     V13    10.0   1_556     S
V15     V39    10.0   .     S
V15     V6    10.0   1_455     S
V16     V19    10.0   1_565     S
V16     V17    10.0   .     S
V16     V18    10.0   1_554     S
V16     V46    10.0   .     S
V17     V20    10.0   1_565     S
V17     V18    10.0   .     S
V17     V47    10.0   .     S
V18     V21    10.0   1_565     S
V18     V16    10.0   1_556     S
V18     V48    10.0   .     S
V19     V16    10.0   1_545     S
V19     V22    10.0   .     S
V19     V21    10.0   1_554     S
V19     V20    10.0   .     S
V19     V43    10.0   .     S
V20     V17    10.0   1_545     S
V20     V23    10.0   .     S
V20     V21    10.0   .     S
V20     V44    10.0   .     S
V21     V18    10.0   1_545     S
V21     V24    10.0   .     S
V21     V19    10.0   1_556     S
V21     V45    10.0   .     S
V22     V14    10.0   1_545     S
V22     V24    10.0   1_554     S
V22     V23    10.0   .     S
V22     V7    10.0   1_455     S
V22     V40    10.0   .     S
V23     V15    10.0   1_545     S
V23     V24    10.0   .     S
V23     V8    10.0   1_455     S
V23     V41    10.0   .     S
V24     V13    10.0   1_546     S
V24     V22    10.0   1_556     S
V24     V9    10.0   1_455     S
V24     V42    10.0   .     S
V25     V29    10.0   .     S
V25     V34    10.0   .     S
V25     V27    10.0   1_554     S
V25     V26    10.0   .     S
V25     V40    10.0   1_655     S
V26     V30    10.0   .     S
V26     V35    10.0   .     S
V26     V27    10.0   .     S
V26     V41    10.0   1_655     S
V27     V28    10.0   1_556     S
V27     V36    10.0   .     S
V27     V25    10.0   1_556     S
V27     V42    10.0   1_655     S
V28     V27    10.0   1_554     S
V28     V31    10.0   .     S
V28     V29    10.0   .     S
V28     V30    10.0   1_554     S
V28     V37    10.0   1_655     S
V29     V32    10.0   .     S
V29     V30    10.0   .     S
V29     V38    10.0   1_655     S
V30     V33    10.0   .     S
V30     V28    10.0   1_556     S
V30     V39    10.0   1_655     S
V31     V34    10.0   .     S
V31     V32    10.0   .     S
V31     V33    10.0   1_554     S
V31     V46    10.0   .     S
V32     V35    10.0   .     S
V32     V33    10.0   .     S
V32     V47    10.0   .     S
V33     V36    10.0   .     S
V33     V31    10.0   1_556     S
V33     V48    10.0   .     S
V34     V36    10.0   1_554     S
V34     V35    10.0   .     S
V34     V43    10.0   .     S
V35     V36    10.0   .     S
V35     V44    10.0   .     S
V36     V34    10.0   1_556     S
V36     V45    10.0   .     S
V37     V42    10.0   1_554     S
V37     V46    10.0   .     S
V37     V38    10.0   .     S
V37     V39    10.0   1_554     S
V37     V28    10.0   1_455     S
V38     V40    10.0   .     S
V38     V47    10.0   .     S
V38     V39    10.0   .     S
V38     V29    10.0   1_455     S
V39     V41    10.0   .     S
V39     V48    10.0   .     S
V39     V37    10.0   1_556     S
V39     V30    10.0   1_455     S
V40     V43    10.0   .     S
V40     V42    10.0   1_554     S
V40     V41    10.0   .     S
V40     V25    10.0   1_455     S
V41     V44    10.0   .     S
V41     V42    10.0   .     S
V41     V26    10.0   1_455     S
V42     V37    10.0   1_556     S
V42     V45    10.0   .     S
V42     V40    10.0   1_556     S
V42     V27    10.0   1_455     S
V43     V46    10.0   .     S
V43     V45    10.0   1_554     S
V43     V44    10.0   .     S
V44     V47    10.0   .     S
V44     V45    10.0   .     S
V45     V48    10.0   .     S
V45     V43    10.0   1_556     S
V46     V47    10.0   .     S
V46     V48    10.0   1_554     S
V47     V48    10.0   .     S
V48     V46    10.0   1_556     S
