data_snm
_audit_creation_date              2019-12-31
_audit_creation_method            'Pymatgen'
_symmetry_space_group_name_H-M    'P1'
_symmetry_Int_Tables_number       1
loop_
_symmetry_equiv_pos_as_xyz
  x,y,z
_cell_length_a                    22.3532
_cell_length_b                    22.3532
_cell_length_c                    30.0003
_cell_angle_alpha                 90.0
_cell_angle_beta                 90.0
_cell_angle_gamma                 90.0
loop_
_atom_site_label
_atom_site_type_symbol
_atom_site_fract_x
_atom_site_fract_y
_atom_site_fract_z
V1     V     0.6937   0.0   0.25
V2     V     0.6937   0.0   0.5833
V3     V     0.6937   0.0   0.9167
V4     V     0.3063   0.0   0.0833
V5     V     0.3063   0.0   0.4167
V6     V     0.3063   0.0   0.75
V7     V     0.0   0.6937   0.0
V8     V     0.0   0.6937   0.3333
V9     V     0.0   0.6937   0.6667
V10     V     0.0   0.3063   0.1667
V11     V     0.0   0.3063   0.5
V12     V     0.0   0.3063   0.8333
loop_
_geom_bond_atom_site_label_1
_geom_bond_atom_site_label_2
_geom_bond_distance
_geom_bond_site_symmetry_2
_ccdc_geom_bond_type
V1     V4    10.0   .     S
V1     V3    10.0   1_554     S
V1     V2    10.0   .     S
V1     V5    10.0   .     S
V1     V10    10.0   1_655     S
V1     V8    10.0   1_645     S
V2     V5    10.0   .     S
V2     V3    10.0   .     S
V2     V6    10.0   .     S
V2     V11    10.0   1_655     S
V2     V9    10.0   1_645     S
V3     V6    10.0   .     S
V3     V1    10.0   1_556     S
V3     V4    10.0   1_556     S
V3     V12    10.0   1_655     S
V3     V7    10.0   1_646     S
V4     V3    10.0   1_554     S
V4     V5    10.0   .     S
V4     V6    10.0   1_554     S
V4     V10    10.0   .     S
V4     V7    10.0   1_545     S
V5     V6    10.0   .     S
V5     V11    10.0   .     S
V5     V8    10.0   1_545     S
V6     V4    10.0   1_556     S
V6     V12    10.0   .     S
V6     V9    10.0   1_545     S
V7     V10    10.0   .     S
V7     V8    10.0   .     S
V7     V9    10.0   1_554     S
V7     V12    10.0   1_554     S
V7     V4    10.0   1_565     S
V7     V3    10.0   1_464     S
V8     V11    10.0   .     S
V8     V9    10.0   .     S
V8     V10    10.0   .     S
V8     V5    10.0   1_565     S
V8     V1    10.0   1_465     S
V9     V12    10.0   .     S
V9     V7    10.0   1_556     S
V9     V11    10.0   .     S
V9     V6    10.0   1_565     S
V9     V2    10.0   1_465     S
V10     V12    10.0   1_554     S
V10     V11    10.0   .     S
V10     V1    10.0   1_455     S
V11     V12    10.0   .     S
V11     V2    10.0   1_455     S
V12     V7    10.0   1_556     S
V12     V10    10.0   1_556     S
V12     V3    10.0   1_455     S
