data_snp
_audit_creation_date              2019-12-31
_audit_creation_method            'Pymatgen'
_symmetry_space_group_name_H-M    'P1'
_symmetry_Int_Tables_number       1
loop_
_symmetry_equiv_pos_as_xyz
  x,y,z
_cell_length_a                    40.0
_cell_length_b                    40.0
_cell_length_c                    28.2844
_cell_angle_alpha                 90.0
_cell_angle_beta                 90.0
_cell_angle_gamma                 90.0
loop_
_atom_site_label
_atom_site_type_symbol
_atom_site_fract_x
_atom_site_fract_y
_atom_site_fract_z
V1     V     0.0   0.125   0.25
V2     V     0.0   0.125   0.75
V3     V     0.0   0.625   0.25
V4     V     0.0   0.625   0.75
V5     V     0.5   0.125   0.25
V6     V     0.5   0.125   0.75
V7     V     0.5   0.625   0.25
V8     V     0.5   0.625   0.75
V9     V     0.0   0.375   0.25
V10     V     0.0   0.375   0.75
V11     V     0.0   0.875   0.25
V12     V     0.0   0.875   0.75
V13     V     0.5   0.375   0.25
V14     V     0.5   0.375   0.75
V15     V     0.5   0.875   0.25
V16     V     0.5   0.875   0.75
V17     V     0.125   0.0   0.0
V18     V     0.125   0.0   0.5
V19     V     0.125   0.5   0.0
V20     V     0.125   0.5   0.5
V21     V     0.625   0.0   0.0
V22     V     0.625   0.0   0.5
V23     V     0.625   0.5   0.0
V24     V     0.625   0.5   0.5
V25     V     0.375   0.0   0.0
V26     V     0.375   0.0   0.5
V27     V     0.375   0.5   0.0
V28     V     0.375   0.5   0.5
V29     V     0.875   0.0   0.0
V30     V     0.875   0.0   0.5
V31     V     0.875   0.5   0.0
V32     V     0.875   0.5   0.5
loop_
_geom_bond_atom_site_label_1
_geom_bond_atom_site_label_2
_geom_bond_distance
_geom_bond_site_symmetry_2
_ccdc_geom_bond_type
V1     V11    10.0   1_545     S
V1     V9    10.0   .     S
V1     V30    10.0   1_455     S
V1     V18    10.0   .     S
V1     V17    10.0   .     S
V1     V29    10.0   1_455     S
V2     V12    10.0   1_545     S
V2     V10    10.0   .     S
V2     V29    10.0   1_456     S
V2     V17    10.0   1_556     S
V2     V18    10.0   .     S
V2     V30    10.0   1_455     S
V3     V9    10.0   .     S
V3     V11    10.0   .     S
V3     V32    10.0   1_455     S
V3     V20    10.0   .     S
V3     V19    10.0   .     S
V3     V31    10.0   1_455     S
V4     V10    10.0   .     S
V4     V12    10.0   .     S
V4     V31    10.0   1_456     S
V4     V19    10.0   1_556     S
V4     V20    10.0   .     S
V4     V32    10.0   1_455     S
V5     V15    10.0   1_545     S
V5     V13    10.0   .     S
V5     V26    10.0   .     S
V5     V22    10.0   .     S
V5     V21    10.0   .     S
V5     V25    10.0   .     S
V6     V16    10.0   1_545     S
V6     V14    10.0   .     S
V6     V25    10.0   1_556     S
V6     V21    10.0   1_556     S
V6     V22    10.0   .     S
V6     V26    10.0   .     S
V7     V13    10.0   .     S
V7     V15    10.0   .     S
V7     V28    10.0   .     S
V7     V24    10.0   .     S
V7     V23    10.0   .     S
V7     V27    10.0   .     S
V8     V14    10.0   .     S
V8     V16    10.0   .     S
V8     V27    10.0   1_556     S
V8     V23    10.0   1_556     S
V8     V24    10.0   .     S
V8     V28    10.0   .     S
V9     V32    10.0   1_455     S
V9     V20    10.0   .     S
V9     V19    10.0   .     S
V9     V31    10.0   1_455     S
V10     V31    10.0   1_456     S
V10     V19    10.0   1_556     S
V10     V20    10.0   .     S
V10     V32    10.0   1_455     S
V11     V1    10.0   1_565     S
V11     V30    10.0   1_465     S
V11     V18    10.0   1_565     S
V11     V17    10.0   1_565     S
V11     V29    10.0   1_465     S
V12     V2    10.0   1_565     S
V12     V29    10.0   1_466     S
V12     V17    10.0   1_566     S
V12     V18    10.0   1_565     S
V12     V30    10.0   1_465     S
V13     V28    10.0   .     S
V13     V24    10.0   .     S
V13     V23    10.0   .     S
V13     V27    10.0   .     S
V14     V27    10.0   1_556     S
V14     V23    10.0   1_556     S
V14     V24    10.0   .     S
V14     V28    10.0   .     S
V15     V5    10.0   1_565     S
V15     V26    10.0   1_565     S
V15     V22    10.0   1_565     S
V15     V21    10.0   1_565     S
V15     V25    10.0   1_565     S
V16     V6    10.0   1_565     S
V16     V25    10.0   1_566     S
V16     V21    10.0   1_566     S
V16     V22    10.0   1_565     S
V16     V26    10.0   1_565     S
V17     V12    10.0   1_544     S
V17     V2    10.0   1_554     S
V17     V29    10.0   1_455     S
V17     V25    10.0   .     S
V17     V11    10.0   1_545     S
V18     V11    10.0   1_545     S
V18     V30    10.0   1_455     S
V18     V26    10.0   .     S
V18     V12    10.0   1_545     S
V19     V10    10.0   1_554     S
V19     V4    10.0   1_554     S
V19     V31    10.0   1_455     S
V19     V27    10.0   .     S
V20     V32    10.0   1_455     S
V20     V28    10.0   .     S
V21     V16    10.0   1_544     S
V21     V6    10.0   1_554     S
V21     V25    10.0   .     S
V21     V29    10.0   .     S
V21     V15    10.0   1_545     S
V22     V15    10.0   1_545     S
V22     V26    10.0   .     S
V22     V30    10.0   .     S
V22     V16    10.0   1_545     S
V23     V14    10.0   1_554     S
V23     V8    10.0   1_554     S
V23     V27    10.0   .     S
V23     V31    10.0   .     S
V24     V28    10.0   .     S
V24     V32    10.0   .     S
V25     V6    10.0   1_554     S
V25     V16    10.0   1_544     S
V25     V15    10.0   1_545     S
V26     V15    10.0   1_545     S
V26     V16    10.0   1_545     S
V27     V8    10.0   1_554     S
V27     V14    10.0   1_554     S
V29     V2    10.0   1_654     S
V29     V12    10.0   1_644     S
V29     V17    10.0   1_655     S
V29     V11    10.0   1_645     S
V29     V1    10.0   1_655     S
V30     V1    10.0   1_655     S
V30     V11    10.0   1_645     S
V30     V18    10.0   1_655     S
V30     V12    10.0   1_645     S
V30     V2    10.0   1_655     S
V31     V4    10.0   1_654     S
V31     V10    10.0   1_654     S
V31     V19    10.0   1_655     S
V31     V9    10.0   1_655     S
V31     V3    10.0   1_655     S
V32     V3    10.0   1_655     S
V32     V9    10.0   1_655     S
V32     V20    10.0   1_655     S
V32     V10    10.0   1_655     S
V32     V4    10.0   1_655     S
