data_snw
_audit_creation_date              2019-12-31
_audit_creation_method            'Pymatgen'
_symmetry_space_group_name_H-M    'P1'
_symmetry_Int_Tables_number       1
loop_
_symmetry_equiv_pos_as_xyz
  x,y,z
_cell_length_a                    25.5052
_cell_length_b                    25.5052
_cell_length_c                    48.1047
_cell_angle_alpha                 90.0
_cell_angle_beta                 90.0
_cell_angle_gamma                 90.0
loop_
_atom_site_label
_atom_site_type_symbol
_atom_site_fract_x
_atom_site_fract_y
_atom_site_fract_z
V1     V     0.0   0.375   0.9199
V2     V     0.0   0.875   0.9199
V3     V     0.5   0.375   0.9199
V4     V     0.5   0.875   0.9199
V5     V     0.25   0.125   0.8301
V6     V     0.25   0.625   0.8301
V7     V     0.75   0.125   0.8301
V8     V     0.75   0.625   0.8301
V9     V     0.25   0.375   0.5801
V10     V     0.25   0.875   0.5801
V11     V     0.75   0.375   0.5801
V12     V     0.75   0.875   0.5801
V13     V     0.0   0.125   0.6699
V14     V     0.0   0.625   0.6699
V15     V     0.5   0.125   0.6699
V16     V     0.5   0.625   0.6699
V17     V     0.25   0.125   0.4199
V18     V     0.25   0.625   0.4199
V19     V     0.75   0.125   0.4199
V20     V     0.75   0.625   0.4199
V21     V     0.0   0.375   0.3301
V22     V     0.0   0.875   0.3301
V23     V     0.5   0.375   0.3301
V24     V     0.5   0.875   0.3301
V25     V     0.0   0.125   0.0801
V26     V     0.0   0.625   0.0801
V27     V     0.5   0.125   0.0801
V28     V     0.5   0.625   0.0801
V29     V     0.25   0.375   0.1699
V30     V     0.25   0.875   0.1699
V31     V     0.75   0.375   0.1699
V32     V     0.75   0.875   0.1699
loop_
_geom_bond_atom_site_label_1
_geom_bond_atom_site_label_2
_geom_bond_distance
_geom_bond_site_symmetry_2
_ccdc_geom_bond_type
V1     V6    10.0   .     S
V1     V8    10.0   1_455     S
V1     V7    10.0   1_455     S
V1     V5    10.0   .     S
V1     V25    10.0   1_556     S
V1     V26    10.0   1_556     S
V2     V5    10.0   1_565     S
V2     V7    10.0   1_465     S
V2     V8    10.0   1_455     S
V2     V6    10.0   .     S
V2     V26    10.0   1_556     S
V2     V25    10.0   1_566     S
V3     V8    10.0   .     S
V3     V6    10.0   .     S
V3     V5    10.0   .     S
V3     V7    10.0   .     S
V3     V27    10.0   1_556     S
V3     V28    10.0   1_556     S
V4     V7    10.0   1_565     S
V4     V5    10.0   1_565     S
V4     V6    10.0   .     S
V4     V8    10.0   .     S
V4     V28    10.0   1_556     S
V4     V27    10.0   1_566     S
V5     V2    10.0   1_545     S
V5     V4    10.0   1_545     S
V5     V15    10.0   .     S
V5     V13    10.0   .     S
V6     V16    10.0   .     S
V6     V14    10.0   .     S
V7     V4    10.0   1_545     S
V7     V2    10.0   1_645     S
V7     V1    10.0   1_655     S
V7     V13    10.0   1_655     S
V7     V15    10.0   .     S
V8     V1    10.0   1_655     S
V8     V2    10.0   1_655     S
V8     V14    10.0   1_655     S
V8     V16    10.0   .     S
V9     V14    10.0   .     S
V9     V16    10.0   .     S
V9     V15    10.0   .     S
V9     V13    10.0   .     S
V9     V17    10.0   .     S
V9     V18    10.0   .     S
V10     V13    10.0   1_565     S
V10     V15    10.0   1_565     S
V10     V16    10.0   .     S
V10     V14    10.0   .     S
V10     V18    10.0   .     S
V10     V17    10.0   1_565     S
V11     V16    10.0   .     S
V11     V14    10.0   1_655     S
V11     V13    10.0   1_655     S
V11     V15    10.0   .     S
V11     V19    10.0   .     S
V11     V20    10.0   .     S
V12     V15    10.0   1_565     S
V12     V13    10.0   1_665     S
V12     V14    10.0   1_655     S
V12     V16    10.0   .     S
V12     V20    10.0   .     S
V12     V19    10.0   1_565     S
V13     V7    10.0   1_455     S
V13     V10    10.0   1_545     S
V13     V12    10.0   1_445     S
V13     V11    10.0   1_455     S
V14     V8    10.0   1_455     S
V14     V11    10.0   1_455     S
V14     V12    10.0   1_455     S
V15     V12    10.0   1_545     S
V15     V10    10.0   1_545     S
V17     V22    10.0   1_545     S
V17     V24    10.0   1_545     S
V17     V23    10.0   .     S
V17     V21    10.0   .     S
V17     V10    10.0   1_545     S
V18     V21    10.0   .     S
V18     V23    10.0   .     S
V18     V24    10.0   .     S
V18     V22    10.0   .     S
V19     V24    10.0   1_545     S
V19     V22    10.0   1_645     S
V19     V21    10.0   1_655     S
V19     V23    10.0   .     S
V19     V12    10.0   1_545     S
V20     V23    10.0   .     S
V20     V21    10.0   1_655     S
V20     V22    10.0   1_655     S
V20     V24    10.0   .     S
V21     V20    10.0   1_455     S
V21     V19    10.0   1_455     S
V21     V31    10.0   1_455     S
V21     V29    10.0   .     S
V22     V17    10.0   1_565     S
V22     V19    10.0   1_465     S
V22     V20    10.0   1_455     S
V22     V32    10.0   1_455     S
V22     V30    10.0   .     S
V23     V29    10.0   .     S
V23     V31    10.0   .     S
V24     V19    10.0   1_565     S
V24     V17    10.0   1_565     S
V24     V30    10.0   .     S
V24     V32    10.0   .     S
V25     V30    10.0   1_545     S
V25     V32    10.0   1_445     S
V25     V31    10.0   1_455     S
V25     V29    10.0   .     S
V25     V1    10.0   1_554     S
V25     V2    10.0   1_544     S
V26     V29    10.0   .     S
V26     V31    10.0   1_455     S
V26     V32    10.0   1_455     S
V26     V30    10.0   .     S
V26     V2    10.0   1_554     S
V26     V1    10.0   1_554     S
V27     V32    10.0   1_545     S
V27     V30    10.0   1_545     S
V27     V29    10.0   .     S
V27     V31    10.0   .     S
V27     V3    10.0   1_554     S
V27     V4    10.0   1_544     S
V28     V31    10.0   .     S
V28     V29    10.0   .     S
V28     V30    10.0   .     S
V28     V32    10.0   .     S
V28     V4    10.0   1_554     S
V28     V3    10.0   1_554     S
V30     V25    10.0   1_565     S
V30     V27    10.0   1_565     S
V31     V21    10.0   1_655     S
V31     V26    10.0   1_655     S
V31     V25    10.0   1_655     S
V32     V22    10.0   1_655     S
V32     V27    10.0   1_565     S
V32     V25    10.0   1_665     S
V32     V26    10.0   1_655     S
