data_sny
_audit_creation_date              2019-12-31
_audit_creation_method            'Pymatgen'
_symmetry_space_group_name_H-M    'P1'
_symmetry_Int_Tables_number       1
loop_
_symmetry_equiv_pos_as_xyz
  x,y,z
_cell_length_a                    35.0001
_cell_length_b                    35.0001
_cell_length_c                    30.0
_cell_angle_alpha                 90.0
_cell_angle_beta                 90.0
_cell_angle_gamma                 120.0
loop_
_atom_site_label
_atom_site_type_symbol
_atom_site_fract_x
_atom_site_fract_y
_atom_site_fract_z
V1     V     0.4286   0.5714   0.25
V2     V     0.4286   0.5714   0.5833
V3     V     0.4286   0.5714   0.9167
V4     V     0.1429   0.5714   0.25
V5     V     0.1429   0.5714   0.5833
V6     V     0.1429   0.5714   0.9167
V7     V     0.4286   0.8571   0.25
V8     V     0.4286   0.8571   0.5833
V9     V     0.4286   0.8571   0.9167
V10     V     0.5714   0.4286   0.0833
V11     V     0.5714   0.4286   0.4167
V12     V     0.5714   0.4286   0.75
V13     V     0.5714   0.1429   0.0833
V14     V     0.5714   0.1429   0.4167
V15     V     0.5714   0.1429   0.75
V16     V     0.8571   0.4286   0.0833
V17     V     0.8571   0.4286   0.4167
V18     V     0.8571   0.4286   0.75
loop_
_geom_bond_atom_site_label_1
_geom_bond_atom_site_label_2
_geom_bond_distance
_geom_bond_site_symmetry_2
_ccdc_geom_bond_type
V1     V4    10.0   .     S
V1     V7    10.0   .     S
V1     V3    10.0   1_554     S
V1     V2    10.0   .     S
V1     V10    10.0   .     S
V1     V11    10.0   .     S
V2     V5    10.0   .     S
V2     V8    10.0   .     S
V2     V3    10.0   .     S
V2     V11    10.0   .     S
V2     V12    10.0   .     S
V3     V6    10.0   .     S
V3     V9    10.0   .     S
V3     V1    10.0   1_556     S
V3     V12    10.0   .     S
V3     V10    10.0   1_556     S
V4     V7    10.0   .     S
V4     V6    10.0   1_554     S
V4     V5    10.0   .     S
V4     V17    10.0   1_455     S
V4     V16    10.0   1_455     S
V5     V8    10.0   .     S
V5     V6    10.0   .     S
V5     V18    10.0   1_455     S
V5     V17    10.0   1_455     S
V6     V9    10.0   .     S
V6     V4    10.0   1_556     S
V6     V16    10.0   1_456     S
V6     V18    10.0   1_455     S
V7     V14    10.0   1_565     S
V7     V13    10.0   1_565     S
V7     V9    10.0   1_554     S
V7     V8    10.0   .     S
V8     V15    10.0   1_565     S
V8     V14    10.0   1_565     S
V8     V9    10.0   .     S
V9     V13    10.0   1_566     S
V9     V15    10.0   1_565     S
V9     V7    10.0   1_556     S
V10     V16    10.0   .     S
V10     V13    10.0   .     S
V10     V11    10.0   .     S
V10     V12    10.0   1_554     S
V10     V3    10.0   1_554     S
V11     V17    10.0   .     S
V11     V14    10.0   .     S
V11     V12    10.0   .     S
V12     V18    10.0   .     S
V12     V15    10.0   .     S
V12     V10    10.0   1_556     S
V13     V9    10.0   1_544     S
V13     V7    10.0   1_545     S
V13     V16    10.0   .     S
V13     V14    10.0   .     S
V13     V15    10.0   1_554     S
V14     V7    10.0   1_545     S
V14     V8    10.0   1_545     S
V14     V17    10.0   .     S
V14     V15    10.0   .     S
V15     V8    10.0   1_545     S
V15     V9    10.0   1_545     S
V15     V18    10.0   .     S
V15     V13    10.0   1_556     S
V16     V6    10.0   1_654     S
V16     V4    10.0   1_655     S
V16     V17    10.0   .     S
V16     V18    10.0   1_554     S
V17     V4    10.0   1_655     S
V17     V5    10.0   1_655     S
V17     V18    10.0   .     S
V18     V5    10.0   1_655     S
V18     V6    10.0   1_655     S
V18     V16    10.0   1_556     S
