data_soe
_audit_creation_date              2019-12-31
_audit_creation_method            'Pymatgen'
_symmetry_space_group_name_H-M    'P1'
_symmetry_Int_Tables_number       1
loop_
_symmetry_equiv_pos_as_xyz
  x,y,z
_cell_length_a                    34.0377
_cell_length_b                    29.2504
_cell_length_c                    30.0
_cell_angle_alpha                 90.0
_cell_angle_beta                 90.0
_cell_angle_gamma                 90.0
loop_
_atom_site_label
_atom_site_type_symbol
_atom_site_fract_x
_atom_site_fract_y
_atom_site_fract_z
V1     V     0.3777   0.5846   0.1252
V2     V     0.3777   0.5846   0.4586
V3     V     0.3777   0.5846   0.7919
V4     V     0.6223   0.4154   0.2081
V5     V     0.6223   0.4154   0.5414
V6     V     0.6223   0.4154   0.8748
V7     V     0.6223   0.0846   0.2919
V8     V     0.6223   0.0846   0.6252
V9     V     0.6223   0.0846   0.9586
V10     V     0.3777   0.9155   0.0414
V11     V     0.3777   0.9155   0.3748
V12     V     0.3777   0.9155   0.7081
V13     V     0.8777   0.5846   0.2081
V14     V     0.8777   0.5846   0.5414
V15     V     0.8777   0.5846   0.8748
V16     V     0.1223   0.4154   0.1252
V17     V     0.1223   0.4154   0.4586
V18     V     0.1223   0.4154   0.7919
V19     V     0.1223   0.0846   0.0414
V20     V     0.1223   0.0846   0.3748
V21     V     0.1223   0.0846   0.7081
V22     V     0.8777   0.9155   0.2919
V23     V     0.8777   0.9155   0.6252
V24     V     0.8777   0.9155   0.9586
loop_
_geom_bond_atom_site_label_1
_geom_bond_atom_site_label_2
_geom_bond_distance
_geom_bond_site_symmetry_2
_ccdc_geom_bond_type
V1     V4    10.0   .     S
V1     V2    10.0   .     S
V1     V3    10.0   1_554     S
V1     V10    10.0   .     S
V1     V16    10.0   .     S
V2     V5    10.0   .     S
V2     V3    10.0   .     S
V2     V11    10.0   .     S
V2     V17    10.0   .     S
V3     V6    10.0   .     S
V3     V1    10.0   1_556     S
V3     V12    10.0   .     S
V3     V18    10.0   .     S
V4     V6    10.0   1_554     S
V4     V5    10.0   .     S
V4     V7    10.0   .     S
V4     V13    10.0   .     S
V5     V6    10.0   .     S
V5     V8    10.0   .     S
V5     V14    10.0   .     S
V6     V4    10.0   1_556     S
V6     V9    10.0   .     S
V6     V15    10.0   .     S
V7     V11    10.0   1_545     S
V7     V9    10.0   1_554     S
V7     V8    10.0   .     S
V7     V22    10.0   1_545     S
V8     V12    10.0   1_545     S
V8     V9    10.0   .     S
V8     V23    10.0   1_545     S
V9     V10    10.0   1_546     S
V9     V7    10.0   1_556     S
V9     V24    10.0   1_545     S
V10     V9    10.0   1_564     S
V10     V11    10.0   .     S
V10     V12    10.0   1_554     S
V10     V19    10.0   1_565     S
V11     V7    10.0   1_565     S
V11     V12    10.0   .     S
V11     V20    10.0   1_565     S
V12     V8    10.0   1_565     S
V12     V10    10.0   1_556     S
V12     V21    10.0   1_565     S
V13     V16    10.0   1_655     S
V13     V15    10.0   1_554     S
V13     V14    10.0   .     S
V13     V22    10.0   .     S
V14     V17    10.0   1_655     S
V14     V15    10.0   .     S
V14     V23    10.0   .     S
V15     V18    10.0   1_655     S
V15     V13    10.0   1_556     S
V15     V24    10.0   .     S
V16     V13    10.0   1_455     S
V16     V17    10.0   .     S
V16     V18    10.0   1_554     S
V16     V19    10.0   .     S
V17     V14    10.0   1_455     S
V17     V18    10.0   .     S
V17     V20    10.0   .     S
V18     V15    10.0   1_455     S
V18     V16    10.0   1_556     S
V18     V21    10.0   .     S
V19     V24    10.0   1_444     S
V19     V20    10.0   .     S
V19     V21    10.0   1_554     S
V19     V10    10.0   1_545     S
V20     V22    10.0   1_445     S
V20     V21    10.0   .     S
V20     V11    10.0   1_545     S
V21     V23    10.0   1_445     S
V21     V19    10.0   1_556     S
V21     V12    10.0   1_545     S
V22     V20    10.0   1_665     S
V22     V24    10.0   1_554     S
V22     V23    10.0   .     S
V22     V7    10.0   1_565     S
V23     V21    10.0   1_665     S
V23     V24    10.0   .     S
V23     V8    10.0   1_565     S
V24     V19    10.0   1_666     S
V24     V22    10.0   1_556     S
V24     V9    10.0   1_565     S
