data_sof
_audit_creation_date              2019-12-31
_audit_creation_method            'Pymatgen'
_symmetry_space_group_name_H-M    'P1'
_symmetry_Int_Tables_number       1
loop_
_symmetry_equiv_pos_as_xyz
  x,y,z
_cell_length_a                    33.5555
_cell_length_b                    30.0
_cell_length_c                    32.9135
_cell_angle_alpha                 90.0
_cell_angle_beta                 90.0
_cell_angle_gamma                 90.0
loop_
_atom_site_label
_atom_site_type_symbol
_atom_site_fract_x
_atom_site_fract_y
_atom_site_fract_z
V1     V     0.6026   0.0245   0.8921
V2     V     0.6026   0.3578   0.8921
V3     V     0.6026   0.6912   0.8921
V4     V     0.6026   0.1422   0.6079
V5     V     0.6026   0.4755   0.6079
V6     V     0.6026   0.8088   0.6079
V7     V     0.3974   0.3088   0.1079
V8     V     0.3974   0.6422   0.1079
V9     V     0.3974   0.9755   0.1079
V10     V     0.3974   0.1912   0.3921
V11     V     0.3974   0.5245   0.3921
V12     V     0.3974   0.8578   0.3921
V13     V     0.8974   0.3088   0.8921
V14     V     0.8974   0.6422   0.8921
V15     V     0.8974   0.9755   0.8921
V16     V     0.8974   0.1912   0.6079
V17     V     0.8974   0.5245   0.6079
V18     V     0.8974   0.8578   0.6079
V19     V     0.1026   0.0245   0.1079
V20     V     0.1026   0.3578   0.1079
V21     V     0.1026   0.6912   0.1079
V22     V     0.1026   0.1422   0.3921
V23     V     0.1026   0.4755   0.3921
V24     V     0.1026   0.8088   0.3921
loop_
_geom_bond_atom_site_label_1
_geom_bond_atom_site_label_2
_geom_bond_distance
_geom_bond_site_symmetry_2
_ccdc_geom_bond_type
V1     V4    10.0   .     S
V1     V2    10.0   .     S
V1     V3    10.0   1_545     S
V1     V9    10.0   1_546     S
V1     V15    10.0   1_545     S
V2     V5    10.0   .     S
V2     V3    10.0   .     S
V2     V7    10.0   1_556     S
V2     V13    10.0   .     S
V3     V6    10.0   .     S
V3     V1    10.0   1_565     S
V3     V8    10.0   1_556     S
V3     V14    10.0   .     S
V4     V5    10.0   .     S
V4     V6    10.0   1_545     S
V4     V10    10.0   .     S
V4     V16    10.0   .     S
V5     V6    10.0   .     S
V5     V11    10.0   .     S
V5     V17    10.0   .     S
V6     V4    10.0   1_565     S
V6     V12    10.0   .     S
V6     V18    10.0   .     S
V7     V10    10.0   .     S
V7     V9    10.0   1_545     S
V7     V8    10.0   .     S
V7     V2    10.0   1_554     S
V7     V20    10.0   .     S
V8     V11    10.0   .     S
V8     V9    10.0   .     S
V8     V3    10.0   1_554     S
V8     V21    10.0   .     S
V9     V12    10.0   .     S
V9     V7    10.0   1_565     S
V9     V1    10.0   1_564     S
V9     V19    10.0   1_565     S
V10     V12    10.0   1_545     S
V10     V11    10.0   .     S
V10     V22    10.0   .     S
V11     V12    10.0   .     S
V11     V23    10.0   .     S
V12     V10    10.0   1_565     S
V12     V24    10.0   .     S
V13     V16    10.0   .     S
V13     V15    10.0   1_545     S
V13     V14    10.0   .     S
V13     V20    10.0   1_656     S
V14     V17    10.0   .     S
V14     V15    10.0   .     S
V14     V21    10.0   1_656     S
V15     V18    10.0   .     S
V15     V13    10.0   1_565     S
V15     V19    10.0   1_666     S
V15     V1    10.0   1_565     S
V16     V18    10.0   1_545     S
V16     V17    10.0   .     S
V16     V22    10.0   1_655     S
V17     V18    10.0   .     S
V17     V23    10.0   1_655     S
V18     V16    10.0   1_565     S
V18     V24    10.0   1_655     S
V19     V22    10.0   .     S
V19     V20    10.0   .     S
V19     V21    10.0   1_545     S
V19     V15    10.0   1_444     S
V19     V9    10.0   1_545     S
V20     V23    10.0   .     S
V20     V21    10.0   .     S
V20     V13    10.0   1_454     S
V21     V24    10.0   .     S
V21     V19    10.0   1_565     S
V21     V14    10.0   1_454     S
V22     V23    10.0   .     S
V22     V24    10.0   1_545     S
V22     V16    10.0   1_455     S
V23     V24    10.0   .     S
V23     V17    10.0   1_455     S
V24     V22    10.0   1_565     S
V24     V18    10.0   1_455     S
