data_sog
_audit_creation_date              2019-12-31
_audit_creation_method            'Pymatgen'
_symmetry_space_group_name_H-M    'P1'
_symmetry_Int_Tables_number       1
loop_
_symmetry_equiv_pos_as_xyz
  x,y,z
_cell_length_a                    63.418
_cell_length_b                    30.0
_cell_length_c                    66.1998
_cell_angle_alpha                 90.0
_cell_angle_beta                 90.0
_cell_angle_gamma                 90.0
loop_
_atom_site_label
_atom_site_type_symbol
_atom_site_fract_x
_atom_site_fract_y
_atom_site_fract_z
V1     V     0.8044   0.0325   0.0496
V2     V     0.8044   0.3658   0.0496
V3     V     0.8044   0.6991   0.0496
V4     V     0.8044   0.0509   0.2004
V5     V     0.8044   0.3842   0.2004
V6     V     0.8044   0.7175   0.2004
V7     V     0.9456   0.2175   0.0496
V8     V     0.9456   0.5509   0.0496
V9     V     0.9456   0.8842   0.0496
V10     V     0.9456   0.1991   0.2004
V11     V     0.9456   0.5325   0.2004
V12     V     0.9456   0.8658   0.2004
V13     V     0.8044   0.1991   0.5496
V14     V     0.8044   0.5325   0.5496
V15     V     0.8044   0.8658   0.5496
V16     V     0.8044   0.2175   0.7004
V17     V     0.8044   0.5509   0.7004
V18     V     0.8044   0.8842   0.7004
V19     V     0.9456   0.0509   0.5496
V20     V     0.9456   0.3842   0.5496
V21     V     0.9456   0.7175   0.5496
V22     V     0.9456   0.0325   0.7004
V23     V     0.9456   0.3658   0.7004
V24     V     0.9456   0.6991   0.7004
V25     V     0.4456   0.2175   0.5496
V26     V     0.4456   0.5509   0.5496
V27     V     0.4456   0.8842   0.5496
V28     V     0.4456   0.1991   0.7004
V29     V     0.4456   0.5325   0.7004
V30     V     0.4456   0.8658   0.7004
V31     V     0.3044   0.0325   0.5496
V32     V     0.3044   0.3658   0.5496
V33     V     0.3044   0.6991   0.5496
V34     V     0.3044   0.0509   0.7004
V35     V     0.3044   0.3842   0.7004
V36     V     0.3044   0.7175   0.7004
V37     V     0.5544   0.2825   0.9504
V38     V     0.5544   0.6158   0.9504
V39     V     0.5544   0.9491   0.9504
V40     V     0.5544   0.3009   0.7996
V41     V     0.5544   0.6342   0.7996
V42     V     0.5544   0.9675   0.7996
V43     V     0.6956   0.1342   0.9504
V44     V     0.6956   0.4675   0.9504
V45     V     0.6956   0.8009   0.9504
V46     V     0.6956   0.1158   0.7996
V47     V     0.6956   0.4491   0.7996
V48     V     0.6956   0.7825   0.7996
V49     V     0.0544   0.2825   0.4504
V50     V     0.0544   0.6158   0.4504
V51     V     0.0544   0.9491   0.4504
V52     V     0.0544   0.3009   0.2996
V53     V     0.0544   0.6342   0.2996
V54     V     0.0544   0.9675   0.2996
V55     V     0.1956   0.1342   0.4504
V56     V     0.1956   0.4675   0.4504
V57     V     0.1956   0.8009   0.4504
V58     V     0.1956   0.1158   0.2996
V59     V     0.1956   0.4491   0.2996
V60     V     0.1956   0.7825   0.2996
V61     V     0.1956   0.3009   0.9504
V62     V     0.1956   0.6342   0.9504
V63     V     0.1956   0.9675   0.9504
V64     V     0.1956   0.2825   0.7996
V65     V     0.1956   0.6158   0.7996
V66     V     0.1956   0.9491   0.7996
V67     V     0.0544   0.1158   0.9504
V68     V     0.0544   0.4491   0.9504
V69     V     0.0544   0.7825   0.9504
V70     V     0.0544   0.1342   0.7996
V71     V     0.0544   0.4675   0.7996
V72     V     0.0544   0.8009   0.7996
V73     V     0.3044   0.1991   0.0496
V74     V     0.3044   0.5325   0.0496
V75     V     0.3044   0.8658   0.0496
V76     V     0.3044   0.2175   0.2004
V77     V     0.3044   0.5509   0.2004
V78     V     0.3044   0.8842   0.2004
V79     V     0.4456   0.0509   0.0496
V80     V     0.4456   0.3842   0.0496
V81     V     0.4456   0.7175   0.0496
V82     V     0.4456   0.0325   0.2004
V83     V     0.4456   0.3658   0.2004
V84     V     0.4456   0.6991   0.2004
V85     V     0.5544   0.1158   0.4504
V86     V     0.5544   0.4491   0.4504
V87     V     0.5544   0.7825   0.4504
V88     V     0.5544   0.1342   0.2996
V89     V     0.5544   0.4675   0.2996
V90     V     0.5544   0.8009   0.2996
V91     V     0.6956   0.3009   0.4504
V92     V     0.6956   0.6342   0.4504
V93     V     0.6956   0.9675   0.4504
V94     V     0.6956   0.2825   0.2996
V95     V     0.6956   0.6158   0.2996
V96     V     0.6956   0.9491   0.2996
loop_
_geom_bond_atom_site_label_1
_geom_bond_atom_site_label_2
_geom_bond_distance
_geom_bond_site_symmetry_2
_ccdc_geom_bond_type
V1     V4    10.0   .     S
V1     V9    10.0   1_545     S
V1     V2    10.0   .     S
V1     V3    10.0   1_545     S
V1     V43    10.001   1_554     S
V2     V5    10.0   .     S
V2     V7    10.0   .     S
V2     V3    10.0   .     S
V2     V44    10.001   1_554     S
V3     V6    10.0   .     S
V3     V8    10.0   .     S
V3     V1    10.0   1_565     S
V3     V45    10.001   1_554     S
V4     V10    10.0   .     S
V4     V5    10.0   .     S
V4     V6    10.0   1_545     S
V4     V96    10.001   1_545     S
V5     V11    10.0   .     S
V5     V6    10.0   .     S
V5     V94    10.001   .     S
V6     V12    10.0   .     S
V6     V4    10.0   1_565     S
V6     V95    10.001   .     S
V7     V10    10.0   .     S
V7     V9    10.0   1_545     S
V7     V8    10.0   .     S
V7     V67    10.001   1_654     S
V8     V11    10.0   .     S
V8     V9    10.0   .     S
V8     V68    10.001   1_654     S
V9     V12    10.0   .     S
V9     V1    10.0   1_565     S
V9     V7    10.0   1_565     S
V9     V69    10.001   1_654     S
V10     V12    10.0   1_545     S
V10     V11    10.0   .     S
V10     V52    10.001   1_655     S
V11     V12    10.0   .     S
V11     V53    10.001   1_655     S
V12     V10    10.0   1_565     S
V12     V54    10.001   1_655     S
V13     V16    10.0   .     S
V13     V19    10.0   .     S
V13     V15    10.0   1_545     S
V13     V14    10.0   .     S
V13     V91    10.001   .     S
V14     V17    10.0   .     S
V14     V20    10.0   .     S
V14     V15    10.0   .     S
V14     V92    10.001   .     S
V15     V18    10.0   .     S
V15     V21    10.0   .     S
V15     V13    10.0   1_565     S
V15     V93    10.001   .     S
V16     V23    10.0   .     S
V16     V18    10.0   1_545     S
V16     V17    10.0   .     S
V16     V46    10.001   .     S
V17     V24    10.0   .     S
V17     V18    10.0   .     S
V17     V47    10.001   .     S
V18     V22    10.0   1_565     S
V18     V16    10.0   1_565     S
V18     V48    10.001   .     S
V19     V22    10.0   .     S
V19     V20    10.0   .     S
V19     V21    10.0   1_545     S
V19     V51    10.001   1_645     S
V20     V23    10.0   .     S
V20     V21    10.0   .     S
V20     V49    10.001   1_655     S
V21     V24    10.0   .     S
V21     V19    10.0   1_565     S
V21     V50    10.001   1_655     S
V22     V18    10.0   1_545     S
V22     V23    10.0   .     S
V22     V24    10.0   1_545     S
V22     V70    10.001   1_655     S
V23     V24    10.0   .     S
V23     V71    10.001   1_655     S
V24     V22    10.0   1_565     S
V24     V72    10.001   1_655     S
V25     V28    10.0   .     S
V25     V32    10.0   .     S
V25     V27    10.0   1_545     S
V25     V26    10.0   .     S
V25     V85    10.001   .     S
V26     V29    10.0   .     S
V26     V33    10.0   .     S
V26     V27    10.0   .     S
V26     V86    10.001   .     S
V27     V30    10.0   .     S
V27     V31    10.0   1_565     S
V27     V25    10.0   1_565     S
V27     V87    10.001   .     S
V28     V34    10.0   .     S
V28     V30    10.0   1_545     S
V28     V29    10.0   .     S
V28     V40    10.001   .     S
V29     V35    10.0   .     S
V29     V30    10.0   .     S
V29     V41    10.001   .     S
V30     V36    10.0   .     S
V30     V28    10.0   1_565     S
V30     V42    10.001   .     S
V31     V34    10.0   .     S
V31     V27    10.0   1_545     S
V31     V32    10.0   .     S
V31     V33    10.0   1_545     S
V31     V55    10.001   .     S
V32     V35    10.0   .     S
V32     V33    10.0   .     S
V32     V56    10.001   .     S
V33     V36    10.0   .     S
V33     V31    10.0   1_565     S
V33     V57    10.001   .     S
V34     V35    10.0   .     S
V34     V36    10.0   1_545     S
V34     V66    10.001   1_545     S
V35     V36    10.0   .     S
V35     V64    10.001   .     S
V36     V34    10.0   1_565     S
V36     V65    10.001   .     S
V37     V40    10.0   .     S
V37     V43    10.0   .     S
V37     V39    10.0   1_545     S
V37     V38    10.0   .     S
V37     V80    10.001   1_556     S
V38     V41    10.0   .     S
V38     V44    10.0   .     S
V38     V39    10.0   .     S
V38     V81    10.001   1_556     S
V39     V42    10.0   .     S
V39     V45    10.0   .     S
V39     V37    10.0   1_565     S
V39     V79    10.001   1_566     S
V40     V47    10.0   .     S
V40     V42    10.0   1_545     S
V40     V41    10.0   .     S
V41     V48    10.0   .     S
V41     V42    10.0   .     S
V42     V46    10.0   1_565     S
V42     V40    10.0   1_565     S
V43     V1    10.001   1_556     S
V43     V46    10.0   .     S
V43     V44    10.0   .     S
V43     V45    10.0   1_545     S
V44     V2    10.001   1_556     S
V44     V47    10.0   .     S
V44     V45    10.0   .     S
V45     V3    10.001   1_556     S
V45     V48    10.0   .     S
V45     V43    10.0   1_565     S
V46     V42    10.0   1_545     S
V46     V47    10.0   .     S
V46     V48    10.0   1_545     S
V47     V48    10.0   .     S
V48     V46    10.0   1_565     S
V49     V52    10.0   .     S
V49     V55    10.0   .     S
V49     V51    10.0   1_545     S
V49     V50    10.0   .     S
V49     V20    10.001   1_455     S
V50     V53    10.0   .     S
V50     V56    10.0   .     S
V50     V51    10.0   .     S
V50     V21    10.001   1_455     S
V51     V54    10.0   .     S
V51     V57    10.0   .     S
V51     V49    10.0   1_565     S
V51     V19    10.001   1_465     S
V52     V59    10.0   .     S
V52     V54    10.0   1_545     S
V52     V53    10.0   .     S
V52     V10    10.001   1_455     S
V53     V60    10.0   .     S
V53     V54    10.0   .     S
V53     V11    10.001   1_455     S
V54     V58    10.0   1_565     S
V54     V52    10.0   1_565     S
V54     V12    10.001   1_455     S
V55     V58    10.0   .     S
V55     V56    10.0   .     S
V55     V57    10.0   1_545     S
V56     V59    10.0   .     S
V56     V57    10.0   .     S
V57     V60    10.0   .     S
V57     V55    10.0   1_565     S
V58     V54    10.0   1_545     S
V58     V59    10.0   .     S
V58     V60    10.0   1_545     S
V58     V76    10.001   .     S
V59     V60    10.0   .     S
V59     V77    10.001   .     S
V60     V58    10.0   1_565     S
V60     V78    10.001   .     S
V61     V64    10.0   .     S
V61     V68    10.0   .     S
V61     V63    10.0   1_545     S
V61     V62    10.0   .     S
V61     V73    10.001   1_556     S
V62     V65    10.0   .     S
V62     V69    10.0   .     S
V62     V63    10.0   .     S
V62     V74    10.001   1_556     S
V63     V66    10.0   .     S
V63     V67    10.0   1_565     S
V63     V61    10.0   1_565     S
V63     V75    10.001   1_556     S
V64     V70    10.0   .     S
V64     V66    10.0   1_545     S
V64     V65    10.0   .     S
V65     V71    10.0   .     S
V65     V66    10.0   .     S
V66     V72    10.0   .     S
V66     V64    10.0   1_565     S
V66     V34    10.001   1_565     S
V67     V70    10.0   .     S
V67     V63    10.0   1_545     S
V67     V68    10.0   .     S
V67     V69    10.0   1_545     S
V67     V7    10.001   1_456     S
V68     V71    10.0   .     S
V68     V69    10.0   .     S
V68     V8    10.001   1_456     S
V69     V72    10.0   .     S
V69     V67    10.0   1_565     S
V69     V9    10.001   1_456     S
V70     V71    10.0   .     S
V70     V72    10.0   1_545     S
V70     V22    10.001   1_455     S
V71     V72    10.0   .     S
V71     V23    10.001   1_455     S
V72     V70    10.0   1_565     S
V72     V24    10.001   1_455     S
V73     V76    10.0   .     S
V73     V79    10.0   .     S
V73     V75    10.0   1_545     S
V73     V74    10.0   .     S
V73     V61    10.001   1_554     S
V74     V77    10.0   .     S
V74     V80    10.0   .     S
V74     V75    10.0   .     S
V74     V62    10.001   1_554     S
V75     V78    10.0   .     S
V75     V81    10.0   .     S
V75     V73    10.0   1_565     S
V75     V63    10.001   1_554     S
V76     V83    10.0   .     S
V76     V78    10.0   1_545     S
V76     V77    10.0   .     S
V77     V84    10.0   .     S
V77     V78    10.0   .     S
V78     V82    10.0   1_565     S
V78     V76    10.0   1_565     S
V79     V39    10.001   1_544     S
V79     V82    10.0   .     S
V79     V80    10.0   .     S
V79     V81    10.0   1_545     S
V80     V37    10.001   1_554     S
V80     V83    10.0   .     S
V80     V81    10.0   .     S
V81     V38    10.001   1_554     S
V81     V84    10.0   .     S
V81     V79    10.0   1_565     S
V82     V78    10.0   1_545     S
V82     V83    10.0   .     S
V82     V84    10.0   1_545     S
V82     V88    10.001   .     S
V83     V84    10.0   .     S
V83     V89    10.001   .     S
V84     V82    10.0   1_565     S
V84     V90    10.001   .     S
V85     V88    10.0   .     S
V85     V93    10.0   1_545     S
V85     V86    10.0   .     S
V85     V87    10.0   1_545     S
V86     V89    10.0   .     S
V86     V91    10.0   .     S
V86     V87    10.0   .     S
V87     V90    10.0   .     S
V87     V92    10.0   .     S
V87     V85    10.0   1_565     S
V88     V94    10.0   .     S
V88     V89    10.0   .     S
V88     V90    10.0   1_545     S
V89     V95    10.0   .     S
V89     V90    10.0   .     S
V90     V96    10.0   .     S
V90     V88    10.0   1_565     S
V91     V94    10.0   .     S
V91     V93    10.0   1_545     S
V91     V92    10.0   .     S
V92     V95    10.0   .     S
V92     V93    10.0   .     S
V93     V96    10.0   .     S
V93     V85    10.0   1_565     S
V93     V91    10.0   1_565     S
V94     V96    10.0   1_545     S
V94     V95    10.0   .     S
V95     V96    10.0   .     S
V96     V4    10.001   1_565     S
V96     V94    10.0   1_565     S
