data_soj
_audit_creation_date              2019-12-31
_audit_creation_method            'Pymatgen'
_symmetry_space_group_name_H-M    'P1'
_symmetry_Int_Tables_number       1
loop_
_symmetry_equiv_pos_as_xyz
  x,y,z
_cell_length_a                    36.7212
_cell_length_b                    24.7247
_cell_length_c                    33.5176
_cell_angle_alpha                 90.0
_cell_angle_beta                 90.0
_cell_angle_gamma                 90.0
loop_
_atom_site_label
_atom_site_type_symbol
_atom_site_fract_x
_atom_site_fract_y
_atom_site_fract_z
V1     V     0.4261   0.1698   0.2503
V2     V     0.4261   0.1698   0.7503
V3     V     0.9261   0.1698   0.2503
V4     V     0.9261   0.1698   0.7503
V5     V     0.1761   0.3302   0.2497
V6     V     0.1761   0.3302   0.7497
V7     V     0.6761   0.3302   0.2497
V8     V     0.6761   0.3302   0.7497
V9     V     0.3239   0.3302   0.0003
V10     V     0.3239   0.3302   0.5003
V11     V     0.8239   0.3302   0.0003
V12     V     0.8239   0.3302   0.5003
V13     V     0.0739   0.1698   0.4997
V14     V     0.0739   0.1698   0.9997
V15     V     0.5739   0.1698   0.4997
V16     V     0.5739   0.1698   0.9997
V17     V     0.1761   0.6698   0.4997
V18     V     0.1761   0.6698   0.9997
V19     V     0.6761   0.6698   0.4997
V20     V     0.6761   0.6698   0.9997
V21     V     0.3239   0.6698   0.2503
V22     V     0.3239   0.6698   0.7503
V23     V     0.8239   0.6698   0.2503
V24     V     0.8239   0.6698   0.7503
V25     V     0.4261   0.8302   0.0003
V26     V     0.4261   0.8302   0.5003
V27     V     0.9261   0.8302   0.0003
V28     V     0.9261   0.8302   0.5003
V29     V     0.0739   0.8302   0.2497
V30     V     0.0739   0.8302   0.7497
V31     V     0.5739   0.8302   0.2497
V32     V     0.5739   0.8302   0.7497
loop_
_geom_bond_atom_site_label_1
_geom_bond_atom_site_label_2
_geom_bond_distance
_geom_bond_site_symmetry_2
_ccdc_geom_bond_type
V1     V5    10.0   .     S
V1     V9    10.0   .     S
V1     V7    10.0   .     S
V1     V10    10.0   .     S
V1     V16    10.0   1_554     S
V1     V31    10.0   1_545     S
V2     V6    10.0   .     S
V2     V10    10.0   .     S
V2     V8    10.0   .     S
V2     V9    10.0   1_556     S
V2     V15    10.0   .     S
V2     V32    10.0   1_545     S
V3     V7    10.0   .     S
V3     V11    10.0   .     S
V3     V5    10.0   1_655     S
V3     V12    10.0   .     S
V3     V14    10.0   1_654     S
V3     V29    10.0   1_645     S
V4     V8    10.0   .     S
V4     V12    10.0   .     S
V4     V6    10.0   1_655     S
V4     V11    10.0   1_556     S
V4     V13    10.0   1_655     S
V4     V30    10.0   1_645     S
V5     V3    10.0   1_455     S
V5     V13    10.0   .     S
V5     V10    10.0   .     S
V5     V14    10.0   1_554     S
V5     V21    10.0   .     S
V6     V4    10.0   1_455     S
V6     V14    10.0   .     S
V6     V9    10.0   1_556     S
V6     V13    10.0   .     S
V6     V22    10.0   .     S
V7     V15    10.0   .     S
V7     V12    10.0   .     S
V7     V16    10.0   1_554     S
V7     V23    10.0   .     S
V8     V16    10.0   .     S
V8     V11    10.0   1_556     S
V8     V15    10.0   .     S
V8     V24    10.0   .     S
V9     V16    10.0   1_554     S
V9     V2    10.0   1_554     S
V9     V6    10.0   1_554     S
V9     V14    10.0   1_554     S
V9     V18    10.0   1_554     S
V10     V15    10.0   .     S
V10     V13    10.0   .     S
V10     V17    10.0   .     S
V11     V14    10.0   1_654     S
V11     V4    10.0   1_554     S
V11     V8    10.0   1_554     S
V11     V16    10.0   1_554     S
V11     V20    10.0   1_554     S
V12     V13    10.0   1_655     S
V12     V15    10.0   .     S
V12     V19    10.0   .     S
V13     V12    10.0   1_455     S
V13     V4    10.0   1_455     S
V13     V28    10.0   1_445     S
V14     V11    10.0   1_456     S
V14     V9    10.0   1_556     S
V14     V5    10.0   1_556     S
V14     V3    10.0   1_456     S
V14     V27    10.0   1_446     S
V15     V26    10.0   1_545     S
V16     V9    10.0   1_556     S
V16     V11    10.0   1_556     S
V16     V7    10.0   1_556     S
V16     V1    10.0   1_556     S
V16     V25    10.0   1_546     S
V17     V26    10.0   .     S
V17     V29    10.0   .     S
V17     V28    10.0   1_455     S
V17     V30    10.0   .     S
V17     V22    10.0   .     S
V18     V25    10.0   1_556     S
V18     V30    10.0   .     S
V18     V27    10.0   1_456     S
V18     V29    10.0   1_556     S
V18     V21    10.0   1_556     S
V18     V9    10.0   1_556     S
V19     V28    10.0   .     S
V19     V31    10.0   .     S
V19     V26    10.0   .     S
V19     V32    10.0   .     S
V19     V24    10.0   .     S
V20     V27    10.0   1_556     S
V20     V32    10.0   .     S
V20     V25    10.0   1_556     S
V20     V31    10.0   1_556     S
V20     V23    10.0   1_556     S
V20     V11    10.0   1_556     S
V21     V26    10.0   .     S
V21     V29    10.0   .     S
V21     V31    10.0   .     S
V21     V25    10.0   .     S
V21     V18    10.0   1_554     S
V22     V25    10.0   1_556     S
V22     V30    10.0   .     S
V22     V32    10.0   .     S
V22     V26    10.0   .     S
V23     V28    10.0   .     S
V23     V31    10.0   .     S
V23     V29    10.0   1_655     S
V23     V27    10.0   .     S
V23     V20    10.0   1_554     S
V24     V27    10.0   1_556     S
V24     V32    10.0   .     S
V24     V30    10.0   1_655     S
V24     V28    10.0   .     S
V25     V18    10.0   1_554     S
V25     V22    10.0   1_554     S
V25     V20    10.0   1_554     S
V25     V32    10.0   1_554     S
V25     V16    10.0   1_564     S
V26     V31    10.0   .     S
V26     V15    10.0   1_565     S
V27     V20    10.0   1_554     S
V27     V24    10.0   1_554     S
V27     V18    10.0   1_654     S
V27     V30    10.0   1_654     S
V27     V14    10.0   1_664     S
V28     V17    10.0   1_655     S
V28     V29    10.0   1_655     S
V28     V13    10.0   1_665     S
V29     V18    10.0   1_554     S
V29     V23    10.0   1_455     S
V29     V28    10.0   1_455     S
V29     V3    10.0   1_465     S
V30     V24    10.0   1_455     S
V30     V27    10.0   1_456     S
V30     V4    10.0   1_465     S
V31     V20    10.0   1_554     S
V31     V1    10.0   1_565     S
V32     V25    10.0   1_556     S
V32     V2    10.0   1_565     S
