data_sok
_audit_creation_date              2019-12-31
_audit_creation_method            'Pymatgen'
_symmetry_space_group_name_H-M    'P1'
_symmetry_Int_Tables_number       1
loop_
_symmetry_equiv_pos_as_xyz
  x,y,z
_cell_length_a                    66.5956
_cell_length_b                    62.7957
_cell_length_c                    30.0
_cell_angle_alpha                 90.0
_cell_angle_beta                 90.0
_cell_angle_gamma                 90.0
loop_
_atom_site_label
_atom_site_type_symbol
_atom_site_fract_x
_atom_site_fract_y
_atom_site_fract_z
V1     V     0.7999   0.694   0.125
V2     V     0.7999   0.694   0.4583
V3     V     0.7999   0.694   0.7917
V4     V     0.7001   0.806   0.2083
V5     V     0.7001   0.806   0.5417
V6     V     0.7001   0.806   0.875
V7     V     0.4501   0.694   0.2917
V8     V     0.4501   0.694   0.625
V9     V     0.4501   0.694   0.9583
V10     V     0.5499   0.806   0.2083
V11     V     0.5499   0.806   0.5417
V12     V     0.5499   0.806   0.875
V13     V     0.9501   0.694   0.125
V14     V     0.9501   0.694   0.4583
V15     V     0.9501   0.694   0.7917
V16     V     0.0499   0.806   0.0417
V17     V     0.0499   0.806   0.375
V18     V     0.0499   0.806   0.7083
V19     V     0.2999   0.694   0.2917
V20     V     0.2999   0.694   0.625
V21     V     0.2999   0.694   0.9583
V22     V     0.2001   0.806   0.0417
V23     V     0.2001   0.806   0.375
V24     V     0.2001   0.806   0.7083
V25     V     0.7999   0.556   0.2917
V26     V     0.7999   0.556   0.625
V27     V     0.7999   0.556   0.9583
V28     V     0.7001   0.444   0.2083
V29     V     0.7001   0.444   0.5417
V30     V     0.7001   0.444   0.875
V31     V     0.5499   0.444   0.2083
V32     V     0.5499   0.444   0.5417
V33     V     0.5499   0.444   0.875
V34     V     0.4501   0.556   0.125
V35     V     0.4501   0.556   0.4583
V36     V     0.4501   0.556   0.7917
V37     V     0.2001   0.444   0.0417
V38     V     0.2001   0.444   0.375
V39     V     0.2001   0.444   0.7083
V40     V     0.2999   0.556   0.125
V41     V     0.2999   0.556   0.4583
V42     V     0.2999   0.556   0.7917
V43     V     0.9501   0.556   0.2917
V44     V     0.9501   0.556   0.625
V45     V     0.9501   0.556   0.9583
V46     V     0.0499   0.444   0.0417
V47     V     0.0499   0.444   0.375
V48     V     0.0499   0.444   0.7083
V49     V     0.5499   0.944   0.0417
V50     V     0.5499   0.944   0.375
V51     V     0.5499   0.944   0.7083
V52     V     0.4501   0.056   0.2917
V53     V     0.4501   0.056   0.625
V54     V     0.4501   0.056   0.9583
V55     V     0.2001   0.944   0.2083
V56     V     0.2001   0.944   0.5417
V57     V     0.2001   0.944   0.875
V58     V     0.2999   0.056   0.2917
V59     V     0.2999   0.056   0.625
V60     V     0.2999   0.056   0.9583
V61     V     0.9501   0.056   0.125
V62     V     0.9501   0.056   0.4583
V63     V     0.9501   0.056   0.7917
V64     V     0.0499   0.944   0.2083
V65     V     0.0499   0.944   0.5417
V66     V     0.0499   0.944   0.875
V67     V     0.7999   0.056   0.125
V68     V     0.7999   0.056   0.4583
V69     V     0.7999   0.056   0.7917
V70     V     0.7001   0.944   0.0417
V71     V     0.7001   0.944   0.375
V72     V     0.7001   0.944   0.7083
V73     V     0.7999   0.194   0.2917
V74     V     0.7999   0.194   0.625
V75     V     0.7999   0.194   0.9583
V76     V     0.7001   0.306   0.0417
V77     V     0.7001   0.306   0.375
V78     V     0.7001   0.306   0.7083
V79     V     0.5499   0.306   0.0417
V80     V     0.5499   0.306   0.375
V81     V     0.5499   0.306   0.7083
V82     V     0.4501   0.194   0.125
V83     V     0.4501   0.194   0.4583
V84     V     0.4501   0.194   0.7917
V85     V     0.2001   0.306   0.2083
V86     V     0.2001   0.306   0.5417
V87     V     0.2001   0.306   0.875
V88     V     0.2999   0.194   0.125
V89     V     0.2999   0.194   0.4583
V90     V     0.2999   0.194   0.7917
V91     V     0.9501   0.194   0.2917
V92     V     0.9501   0.194   0.625
V93     V     0.9501   0.194   0.9583
V94     V     0.0499   0.306   0.2083
V95     V     0.0499   0.306   0.5417
V96     V     0.0499   0.306   0.875
loop_
_geom_bond_atom_site_label_1
_geom_bond_atom_site_label_2
_geom_bond_distance
_geom_bond_site_symmetry_2
_ccdc_geom_bond_type
V1     V25    10.0   .     S
V1     V27    10.001   1_554     S
V1     V4    10.0   .     S
V1     V13    10.0   .     S
V1     V2    10.0   .     S
V1     V3    10.0   1_554     S
V2     V26    10.0   .     S
V2     V25    10.001   .     S
V2     V5    10.0   .     S
V2     V14    10.0   .     S
V2     V3    10.0   .     S
V3     V27    10.0   .     S
V3     V26    10.001   .     S
V3     V6    10.0   .     S
V3     V15    10.0   .     S
V3     V1    10.0   1_556     S
V4     V70    10.0   .     S
V4     V71    10.001   .     S
V4     V10    10.0   .     S
V4     V6    10.0   1_554     S
V4     V5    10.0   .     S
V5     V71    10.0   .     S
V5     V72    10.001   .     S
V5     V11    10.0   .     S
V5     V6    10.0   .     S
V6     V72    10.0   .     S
V6     V70    10.001   1_556     S
V6     V12    10.0   .     S
V6     V4    10.0   1_556     S
V7     V34    10.0   .     S
V7     V35    10.001   .     S
V7     V10    10.0   .     S
V7     V19    10.0   .     S
V7     V9    10.0   1_554     S
V7     V8    10.0   .     S
V8     V35    10.0   .     S
V8     V36    10.001   .     S
V8     V11    10.0   .     S
V8     V20    10.0   .     S
V8     V9    10.0   .     S
V9     V36    10.0   .     S
V9     V34    10.001   1_556     S
V9     V12    10.0   .     S
V9     V21    10.0   .     S
V9     V7    10.0   1_556     S
V10     V50    10.0   .     S
V10     V49    10.001   .     S
V10     V12    10.0   1_554     S
V10     V11    10.0   .     S
V11     V51    10.0   .     S
V11     V50    10.001   .     S
V11     V12    10.0   .     S
V12     V49    10.0   1_556     S
V12     V51    10.001   .     S
V12     V10    10.0   1_556     S
V13     V45    10.0   1_554     S
V13     V43    10.001   .     S
V13     V16    10.0   1_655     S
V13     V14    10.0   .     S
V13     V15    10.0   1_554     S
V14     V43    10.0   .     S
V14     V44    10.001   .     S
V14     V17    10.0   1_655     S
V14     V15    10.0   .     S
V15     V44    10.0   .     S
V15     V45    10.001   .     S
V15     V18    10.0   1_655     S
V15     V13    10.0   1_556     S
V16     V64    10.0   .     S
V16     V66    10.001   1_554     S
V16     V13    10.0   1_455     S
V16     V22    10.0   .     S
V16     V17    10.0   .     S
V16     V18    10.0   1_554     S
V17     V65    10.0   .     S
V17     V64    10.001   .     S
V17     V14    10.0   1_455     S
V17     V23    10.0   .     S
V17     V18    10.0   .     S
V18     V66    10.0   .     S
V18     V65    10.001   .     S
V18     V15    10.0   1_455     S
V18     V24    10.0   .     S
V18     V16    10.0   1_556     S
V19     V41    10.0   .     S
V19     V40    10.001   .     S
V19     V23    10.0   .     S
V19     V21    10.0   1_554     S
V19     V20    10.0   .     S
V20     V42    10.0   .     S
V20     V41    10.001   .     S
V20     V24    10.0   .     S
V20     V21    10.0   .     S
V21     V40    10.0   1_556     S
V21     V42    10.001   .     S
V21     V22    10.0   1_556     S
V21     V19    10.0   1_556     S
V22     V21    10.0   1_554     S
V22     V23    10.0   .     S
V22     V24    10.0   1_554     S
V22     V57    10.0   1_554     S
V22     V55    10.001   .     S
V23     V24    10.0   .     S
V23     V55    10.0   .     S
V23     V56    10.001   .     S
V24     V22    10.0   1_556     S
V24     V56    10.0   .     S
V24     V57    10.001   .     S
V25     V28    10.0   .     S
V25     V43    10.0   .     S
V25     V27    10.0   1_554     S
V25     V26    10.0   .     S
V26     V29    10.0   .     S
V26     V44    10.0   .     S
V26     V27    10.0   .     S
V27     V1    10.001   1_556     S
V27     V30    10.0   .     S
V27     V45    10.0   .     S
V27     V25    10.0   1_556     S
V28     V31    10.0   .     S
V28     V30    10.0   1_554     S
V28     V29    10.0   .     S
V28     V77    10.0   .     S
V28     V76    10.001   .     S
V29     V32    10.0   .     S
V29     V30    10.0   .     S
V29     V78    10.0   .     S
V29     V77    10.001   .     S
V30     V33    10.0   .     S
V30     V28    10.0   1_556     S
V30     V76    10.0   1_556     S
V30     V78    10.001   .     S
V31     V34    10.0   .     S
V31     V33    10.0   1_554     S
V31     V32    10.0   .     S
V31     V79    10.0   .     S
V31     V80    10.001   .     S
V32     V35    10.0   .     S
V32     V33    10.0   .     S
V32     V80    10.0   .     S
V32     V81    10.001   .     S
V33     V36    10.0   .     S
V33     V31    10.0   1_556     S
V33     V81    10.0   .     S
V33     V79    10.001   1_556     S
V34     V9    10.001   1_554     S
V34     V40    10.0   .     S
V34     V35    10.0   .     S
V34     V36    10.0   1_554     S
V35     V41    10.0   .     S
V35     V36    10.0   .     S
V36     V42    10.0   .     S
V36     V34    10.0   1_556     S
V37     V40    10.0   .     S
V37     V46    10.0   .     S
V37     V38    10.0   .     S
V37     V39    10.0   1_554     S
V37     V85    10.0   .     S
V37     V87    10.001   1_554     S
V38     V41    10.0   .     S
V38     V47    10.0   .     S
V38     V39    10.0   .     S
V38     V86    10.0   .     S
V38     V85    10.001   .     S
V39     V42    10.0   .     S
V39     V48    10.0   .     S
V39     V37    10.0   1_556     S
V39     V87    10.0   .     S
V39     V86    10.001   .     S
V40     V21    10.0   1_554     S
V40     V41    10.0   .     S
V40     V42    10.0   1_554     S
V41     V42    10.0   .     S
V42     V40    10.0   1_556     S
V43     V47    10.0   1_655     S
V43     V45    10.0   1_554     S
V43     V44    10.0   .     S
V44     V48    10.0   1_655     S
V44     V45    10.0   .     S
V45     V13    10.0   1_556     S
V45     V46    10.0   1_656     S
V45     V43    10.0   1_556     S
V46     V45    10.0   1_454     S
V46     V47    10.0   .     S
V46     V48    10.0   1_554     S
V46     V96    10.0   1_554     S
V46     V94    10.001   .     S
V47     V43    10.0   1_455     S
V47     V48    10.0   .     S
V47     V94    10.0   .     S
V47     V95    10.001   .     S
V48     V44    10.0   1_455     S
V48     V46    10.0   1_556     S
V48     V95    10.0   .     S
V48     V96    10.001   .     S
V49     V12    10.0   1_554     S
V49     V54    10.0   1_564     S
V49     V70    10.0   .     S
V49     V50    10.0   .     S
V49     V51    10.0   1_554     S
V50     V52    10.0   1_565     S
V50     V71    10.0   .     S
V50     V51    10.0   .     S
V51     V53    10.0   1_565     S
V51     V72    10.0   .     S
V51     V49    10.0   1_556     S
V52     V50    10.0   1_545     S
V52     V58    10.0   .     S
V52     V54    10.0   1_554     S
V52     V53    10.0   .     S
V52     V83    10.0   .     S
V52     V82    10.001   .     S
V53     V51    10.0   1_545     S
V53     V59    10.0   .     S
V53     V54    10.0   .     S
V53     V84    10.0   .     S
V53     V83    10.001   .     S
V54     V49    10.0   1_546     S
V54     V60    10.0   .     S
V54     V52    10.0   1_556     S
V54     V82    10.0   1_556     S
V54     V84    10.001   .     S
V55     V58    10.0   1_565     S
V55     V64    10.0   .     S
V55     V57    10.0   1_554     S
V55     V56    10.0   .     S
V56     V59    10.0   1_565     S
V56     V65    10.0   .     S
V56     V57    10.0   .     S
V57     V22    10.0   1_556     S
V57     V60    10.0   1_565     S
V57     V66    10.0   .     S
V57     V55    10.0   1_556     S
V58     V55    10.0   1_545     S
V58     V60    10.0   1_554     S
V58     V59    10.0   .     S
V58     V88    10.0   .     S
V58     V89    10.001   .     S
V59     V56    10.0   1_545     S
V59     V60    10.0   .     S
V59     V89    10.0   .     S
V59     V90    10.001   .     S
V60     V57    10.0   1_545     S
V60     V58    10.0   1_556     S
V60     V90    10.0   .     S
V60     V88    10.001   1_556     S
V61     V91    10.0   .     S
V61     V93    10.001   1_554     S
V61     V64    10.0   1_645     S
V61     V67    10.0   .     S
V61     V62    10.0   .     S
V61     V63    10.0   1_554     S
V62     V92    10.0   .     S
V62     V91    10.001   .     S
V62     V65    10.0   1_645     S
V62     V68    10.0   .     S
V62     V63    10.0   .     S
V63     V93    10.0   .     S
V63     V92    10.001   .     S
V63     V66    10.0   1_645     S
V63     V69    10.0   .     S
V63     V61    10.0   1_556     S
V64     V61    10.0   1_465     S
V64     V66    10.0   1_554     S
V64     V65    10.0   .     S
V65     V62    10.0   1_465     S
V65     V66    10.0   .     S
V66     V16    10.001   1_556     S
V66     V63    10.0   1_465     S
V66     V64    10.0   1_556     S
V67     V70    10.0   1_545     S
V67     V68    10.0   .     S
V67     V69    10.0   1_554     S
V67     V75    10.0   1_554     S
V67     V73    10.001   .     S
V68     V71    10.0   1_545     S
V68     V69    10.0   .     S
V68     V73    10.0   .     S
V68     V74    10.001   .     S
V69     V72    10.0   1_545     S
V69     V67    10.0   1_556     S
V69     V74    10.0   .     S
V69     V75    10.001   .     S
V70     V6    10.001   1_554     S
V70     V67    10.0   1_565     S
V70     V71    10.0   .     S
V70     V72    10.0   1_554     S
V71     V68    10.0   1_565     S
V71     V72    10.0   .     S
V72     V69    10.0   1_565     S
V72     V70    10.0   1_556     S
V73     V77    10.0   .     S
V73     V91    10.0   .     S
V73     V75    10.0   1_554     S
V73     V74    10.0   .     S
V74     V78    10.0   .     S
V74     V92    10.0   .     S
V74     V75    10.0   .     S
V75     V67    10.0   1_556     S
V75     V76    10.0   1_556     S
V75     V93    10.0   .     S
V75     V73    10.0   1_556     S
V76     V30    10.0   1_554     S
V76     V75    10.0   1_554     S
V76     V79    10.0   .     S
V76     V77    10.0   .     S
V76     V78    10.0   1_554     S
V77     V80    10.0   .     S
V77     V78    10.0   .     S
V78     V81    10.0   .     S
V78     V76    10.0   1_556     S
V79     V33    10.001   1_554     S
V79     V82    10.0   .     S
V79     V80    10.0   .     S
V79     V81    10.0   1_554     S
V80     V83    10.0   .     S
V80     V81    10.0   .     S
V81     V84    10.0   .     S
V81     V79    10.0   1_556     S
V82     V54    10.0   1_554     S
V82     V88    10.0   .     S
V82     V83    10.0   .     S
V82     V84    10.0   1_554     S
V83     V89    10.0   .     S
V83     V84    10.0   .     S
V84     V90    10.0   .     S
V84     V82    10.0   1_556     S
V85     V88    10.0   .     S
V85     V94    10.0   .     S
V85     V87    10.0   1_554     S
V85     V86    10.0   .     S
V86     V89    10.0   .     S
V86     V95    10.0   .     S
V86     V87    10.0   .     S
V87     V37    10.001   1_556     S
V87     V90    10.0   .     S
V87     V96    10.0   .     S
V87     V85    10.0   1_556     S
V88     V60    10.001   1_554     S
V88     V89    10.0   .     S
V88     V90    10.0   1_554     S
V89     V90    10.0   .     S
V90     V88    10.0   1_556     S
V91     V94    10.0   1_655     S
V91     V93    10.0   1_554     S
V91     V92    10.0   .     S
V92     V95    10.0   1_655     S
V92     V93    10.0   .     S
V93     V61    10.001   1_556     S
V93     V96    10.0   1_655     S
V93     V91    10.0   1_556     S
V94     V91    10.0   1_455     S
V94     V96    10.0   1_554     S
V94     V95    10.0   .     S
V95     V92    10.0   1_455     S
V95     V96    10.0   .     S
V96     V46    10.0   1_556     S
V96     V93    10.0   1_455     S
V96     V94    10.0   1_556     S
