data_sol
_audit_creation_date              2019-12-31
_audit_creation_method            'Pymatgen'
_symmetry_space_group_name_H-M    'P1'
_symmetry_Int_Tables_number       1
loop_
_symmetry_equiv_pos_as_xyz
  x,y,z
_cell_length_a                    24.2672
_cell_length_b                    36.3018
_cell_length_c                    33.5866
_cell_angle_alpha                 90.0
_cell_angle_beta                 90.0
_cell_angle_gamma                 90.0
loop_
_atom_site_label
_atom_site_type_symbol
_atom_site_fract_x
_atom_site_fract_y
_atom_site_fract_z
V1     V     0.6635   0.3276   0.2156
V2     V     0.6635   0.3276   0.7156
V3     V     0.6635   0.8276   0.2156
V4     V     0.6635   0.8276   0.7156
V5     V     0.3365   0.3276   0.0344
V6     V     0.3365   0.3276   0.5344
V7     V     0.3365   0.8276   0.0344
V8     V     0.3365   0.8276   0.5344
V9     V     0.1635   0.4224   0.2844
V10     V     0.1635   0.4224   0.7844
V11     V     0.1635   0.9224   0.2844
V12     V     0.1635   0.9224   0.7844
V13     V     0.8365   0.4224   0.4656
V14     V     0.8365   0.4224   0.9656
V15     V     0.8365   0.9224   0.4656
V16     V     0.8365   0.9224   0.9656
V17     V     0.1635   0.0776   0.0344
V18     V     0.1635   0.0776   0.5344
V19     V     0.1635   0.5776   0.0344
V20     V     0.1635   0.5776   0.5344
V21     V     0.8365   0.0776   0.2156
V22     V     0.8365   0.0776   0.7156
V23     V     0.8365   0.5776   0.2156
V24     V     0.8365   0.5776   0.7156
V25     V     0.3365   0.1724   0.2844
V26     V     0.3365   0.1724   0.7844
V27     V     0.3365   0.6724   0.2844
V28     V     0.3365   0.6724   0.7844
V29     V     0.6635   0.1724   0.4656
V30     V     0.6635   0.1724   0.9656
V31     V     0.6635   0.6724   0.4656
V32     V     0.6635   0.6724   0.9656
loop_
_geom_bond_atom_site_label_1
_geom_bond_atom_site_label_2
_geom_bond_distance
_geom_bond_site_symmetry_2
_ccdc_geom_bond_type
V1     V5    10.0   .     S
V1     V14    10.0   1_554     S
V1     V13    10.0   .     S
V1     V25    10.0   .     S
V1     V23    10.0   .     S
V1     V21    10.0   .     S
V2     V6    10.0   .     S
V2     V13    10.0   .     S
V2     V14    10.0   .     S
V2     V26    10.0   .     S
V2     V24    10.0   .     S
V2     V22    10.0   .     S
V3     V7    10.0   .     S
V3     V16    10.0   1_554     S
V3     V15    10.0   .     S
V3     V27    10.0   .     S
V3     V21    10.0   1_565     S
V3     V23    10.0   .     S
V4     V8    10.0   .     S
V4     V15    10.0   .     S
V4     V16    10.0   .     S
V4     V28    10.0   .     S
V4     V22    10.0   1_565     S
V4     V24    10.0   .     S
V5     V10    10.0   1_554     S
V5     V9    10.0   .     S
V5     V30    10.0   1_554     S
V5     V19    10.0   .     S
V5     V17    10.0   .     S
V6     V9    10.0   .     S
V6     V10    10.0   .     S
V6     V29    10.0   .     S
V6     V20    10.0   .     S
V6     V18    10.0   .     S
V7     V12    10.0   1_554     S
V7     V11    10.0   .     S
V7     V32    10.0   1_554     S
V7     V17    10.0   1_565     S
V7     V19    10.0   .     S
V8     V11    10.0   .     S
V8     V12    10.0   .     S
V8     V31    10.0   .     S
V8     V18    10.0   1_565     S
V8     V20    10.0   .     S
V9     V13    10.0   1_455     S
V9     V23    10.0   1_455     S
V9     V25    10.0   .     S
V9     V27    10.0   .     S
V10     V5    10.0   1_556     S
V10     V14    10.0   1_455     S
V10     V24    10.0   1_455     S
V10     V26    10.0   .     S
V10     V28    10.0   .     S
V11     V15    10.0   1_455     S
V11     V21    10.0   1_465     S
V11     V27    10.0   .     S
V11     V25    10.0   1_565     S
V12     V7    10.0   1_556     S
V12     V16    10.0   1_455     S
V12     V22    10.0   1_465     S
V12     V28    10.0   .     S
V12     V26    10.0   1_565     S
V13     V9    10.0   1_655     S
V13     V20    10.0   1_655     S
V13     V29    10.0   .     S
V13     V31    10.0   .     S
V14     V10    10.0   1_655     S
V14     V1    10.0   1_556     S
V14     V19    10.0   1_656     S
V14     V30    10.0   .     S
V14     V32    10.0   .     S
V15     V11    10.0   1_655     S
V15     V18    10.0   1_665     S
V15     V31    10.0   .     S
V15     V29    10.0   1_565     S
V16     V12    10.0   1_655     S
V16     V3    10.0   1_556     S
V16     V17    10.0   1_666     S
V16     V32    10.0   .     S
V16     V30    10.0   1_565     S
V17     V21    10.0   1_455     S
V17     V26    10.0   1_554     S
V17     V25    10.0   .     S
V17     V16    10.0   1_444     S
V17     V7    10.0   1_545     S
V18     V22    10.0   1_455     S
V18     V25    10.0   .     S
V18     V26    10.0   .     S
V18     V15    10.0   1_445     S
V18     V8    10.0   1_545     S
V19     V23    10.0   1_455     S
V19     V28    10.0   1_554     S
V19     V27    10.0   .     S
V19     V14    10.0   1_454     S
V20     V24    10.0   1_455     S
V20     V27    10.0   .     S
V20     V28    10.0   .     S
V20     V13    10.0   1_455     S
V21     V17    10.0   1_655     S
V21     V30    10.0   1_554     S
V21     V29    10.0   .     S
V21     V11    10.0   1_645     S
V21     V3    10.0   1_545     S
V22     V18    10.0   1_655     S
V22     V29    10.0   .     S
V22     V30    10.0   .     S
V22     V12    10.0   1_645     S
V22     V4    10.0   1_545     S
V23     V19    10.0   1_655     S
V23     V32    10.0   1_554     S
V23     V31    10.0   .     S
V23     V9    10.0   1_655     S
V24     V20    10.0   1_655     S
V24     V31    10.0   .     S
V24     V32    10.0   .     S
V24     V10    10.0   1_655     S
V25     V29    10.0   .     S
V25     V11    10.0   1_545     S
V26     V17    10.0   1_556     S
V26     V30    10.0   .     S
V26     V12    10.0   1_545     S
V27     V31    10.0   .     S
V28     V19    10.0   1_556     S
V28     V32    10.0   .     S
V29     V15    10.0   1_545     S
V30     V21    10.0   1_556     S
V30     V5    10.0   1_556     S
V30     V16    10.0   1_545     S
V32     V23    10.0   1_556     S
V32     V7    10.0   1_556     S
