data_som
_audit_creation_date              2019-12-31
_audit_creation_method            'Pymatgen'
_symmetry_space_group_name_H-M    'P1'
_symmetry_Int_Tables_number       1
loop_
_symmetry_equiv_pos_as_xyz
  x,y,z
_cell_length_a                    30.0
_cell_length_b                    38.6689
_cell_length_c                    79.1542
_cell_angle_alpha                 90.0
_cell_angle_beta                 90.0
_cell_angle_gamma                 90.0
loop_
_atom_site_label
_atom_site_type_symbol
_atom_site_fract_x
_atom_site_fract_y
_atom_site_fract_z
V1     V     0.0921   0.5018   0.3131
V2     V     0.4254   0.5018   0.3131
V3     V     0.7588   0.5018   0.3131
V4     V     0.1579   0.5018   0.4369
V5     V     0.4912   0.5018   0.4369
V6     V     0.8246   0.5018   0.4369
V7     V     0.3246   0.7482   0.3131
V8     V     0.6579   0.7482   0.3131
V9     V     0.9912   0.7482   0.3131
V10     V     0.2588   0.7482   0.4369
V11     V     0.5921   0.7482   0.4369
V12     V     0.9254   0.7482   0.4369
V13     V     0.1579   0.2482   0.3131
V14     V     0.4912   0.2482   0.3131
V15     V     0.8246   0.2482   0.3131
V16     V     0.0921   0.2482   0.4369
V17     V     0.4254   0.2482   0.4369
V18     V     0.7588   0.2482   0.4369
V19     V     0.2588   0.0018   0.3131
V20     V     0.5921   0.0018   0.3131
V21     V     0.9254   0.0018   0.3131
V22     V     0.3246   0.0018   0.4369
V23     V     0.6579   0.0018   0.4369
V24     V     0.9912   0.0018   0.4369
V25     V     0.1754   0.4982   0.5631
V26     V     0.5088   0.4982   0.5631
V27     V     0.8421   0.4982   0.5631
V28     V     0.2412   0.4982   0.6869
V29     V     0.5746   0.4982   0.6869
V30     V     0.9079   0.4982   0.6869
V31     V     0.0088   0.2518   0.6869
V32     V     0.3421   0.2518   0.6869
V33     V     0.6754   0.2518   0.6869
V34     V     0.0746   0.2518   0.5631
V35     V     0.4079   0.2518   0.5631
V36     V     0.7412   0.2518   0.5631
V37     V     0.0088   0.9982   0.5631
V38     V     0.3421   0.9982   0.5631
V39     V     0.6754   0.9982   0.5631
V40     V     0.0746   0.9982   0.6869
V41     V     0.4079   0.9982   0.6869
V42     V     0.7412   0.9982   0.6869
V43     V     0.2412   0.7518   0.5631
V44     V     0.5746   0.7518   0.5631
V45     V     0.9079   0.7518   0.5631
V46     V     0.1754   0.7518   0.6869
V47     V     0.5088   0.7518   0.6869
V48     V     0.8421   0.7518   0.6869
V49     V     0.3246   0.5018   0.9369
V50     V     0.6579   0.5018   0.9369
V51     V     0.9912   0.5018   0.9369
V52     V     0.2588   0.5018   0.8131
V53     V     0.5921   0.5018   0.8131
V54     V     0.9254   0.5018   0.8131
V55     V     0.0921   0.7482   0.9369
V56     V     0.4254   0.7482   0.9369
V57     V     0.7588   0.7482   0.9369
V58     V     0.1579   0.7482   0.8131
V59     V     0.4912   0.7482   0.8131
V60     V     0.8246   0.7482   0.8131
V61     V     0.2588   0.2482   0.9369
V62     V     0.5921   0.2482   0.9369
V63     V     0.9254   0.2482   0.9369
V64     V     0.3246   0.2482   0.8131
V65     V     0.6579   0.2482   0.8131
V66     V     0.9912   0.2482   0.8131
V67     V     0.1579   0.0018   0.9369
V68     V     0.4912   0.0018   0.9369
V69     V     0.8246   0.0018   0.9369
V70     V     0.0921   0.0018   0.8131
V71     V     0.4254   0.0018   0.8131
V72     V     0.7588   0.0018   0.8131
V73     V     0.0746   0.4982   0.1869
V74     V     0.4079   0.4982   0.1869
V75     V     0.7412   0.4982   0.1869
V76     V     0.0088   0.4982   0.0631
V77     V     0.3421   0.4982   0.0631
V78     V     0.6754   0.4982   0.0631
V79     V     0.1754   0.2518   0.1869
V80     V     0.5088   0.2518   0.1869
V81     V     0.8421   0.2518   0.1869
V82     V     0.2412   0.2518   0.0631
V83     V     0.5746   0.2518   0.0631
V84     V     0.9079   0.2518   0.0631
V85     V     0.2412   0.9982   0.1869
V86     V     0.5746   0.9982   0.1869
V87     V     0.9079   0.9982   0.1869
V88     V     0.1754   0.9982   0.0631
V89     V     0.5088   0.9982   0.0631
V90     V     0.8421   0.9982   0.0631
V91     V     0.0088   0.7518   0.1869
V92     V     0.3421   0.7518   0.1869
V93     V     0.6754   0.7518   0.1869
V94     V     0.0746   0.7518   0.0631
V95     V     0.4079   0.7518   0.0631
V96     V     0.7412   0.7518   0.0631
loop_
_geom_bond_atom_site_label_1
_geom_bond_atom_site_label_2
_geom_bond_distance
_geom_bond_site_symmetry_2
_ccdc_geom_bond_type
V1     V4    9.999   .     S
V1     V9    10.0   1_455     S
V1     V2    10.0   .     S
V1     V3    10.0   1_455     S
V1     V13    10.0   .     S
V1     V73    10.001   .     S
V2     V5    9.999   .     S
V2     V7    10.0   .     S
V2     V3    10.0   .     S
V2     V14    10.0   .     S
V2     V74    10.001   .     S
V3     V6    9.999   .     S
V3     V8    10.0   .     S
V3     V1    10.0   1_655     S
V3     V15    10.0   .     S
V3     V75    10.001   .     S
V4     V10    10.0   .     S
V4     V5    10.0   .     S
V4     V6    10.0   1_455     S
V4     V16    10.0   .     S
V4     V25    10.001   .     S
V5     V11    10.0   .     S
V5     V6    10.0   .     S
V5     V17    10.0   .     S
V5     V26    10.001   .     S
V6     V12    10.0   .     S
V6     V4    10.0   1_655     S
V6     V18    10.0   .     S
V6     V27    10.001   .     S
V7     V10    9.999   .     S
V7     V9    10.0   1_455     S
V7     V8    10.0   .     S
V7     V19    10.0   1_565     S
V7     V92    10.001   .     S
V8     V11    9.999   .     S
V8     V9    10.0   .     S
V8     V20    10.0   1_565     S
V8     V93    10.001   .     S
V9     V12    9.999   .     S
V9     V1    10.0   1_655     S
V9     V7    10.0   1_655     S
V9     V21    10.0   1_565     S
V9     V91    10.001   1_655     S
V10     V12    10.0   1_455     S
V10     V11    10.0   .     S
V10     V22    10.0   1_565     S
V10     V43    10.001   .     S
V11     V12    10.0   .     S
V11     V23    10.0   1_565     S
V11     V44    10.001   .     S
V12     V10    10.0   1_655     S
V12     V24    10.0   1_565     S
V12     V45    10.001   .     S
V13     V16    9.999   .     S
V13     V19    10.0   .     S
V13     V14    10.0   .     S
V13     V15    10.0   1_455     S
V13     V79    10.001   .     S
V14     V17    9.999   .     S
V14     V20    10.0   .     S
V14     V15    10.0   .     S
V14     V80    10.001   .     S
V15     V18    9.999   .     S
V15     V21    10.0   .     S
V15     V13    10.0   1_655     S
V15     V81    10.001   .     S
V16     V24    10.0   1_455     S
V16     V17    10.0   .     S
V16     V18    10.0   1_455     S
V16     V34    10.001   .     S
V17     V22    10.0   .     S
V17     V18    10.0   .     S
V17     V35    10.001   .     S
V18     V23    10.0   .     S
V18     V16    10.0   1_655     S
V18     V36    10.001   .     S
V19     V22    9.999   .     S
V19     V21    10.0   1_455     S
V19     V20    10.0   .     S
V19     V7    10.0   1_545     S
V19     V85    10.001   1_545     S
V20     V23    9.999   .     S
V20     V21    10.0   .     S
V20     V8    10.0   1_545     S
V20     V86    10.001   1_545     S
V21     V24    9.999   .     S
V21     V19    10.0   1_655     S
V21     V9    10.0   1_545     S
V21     V87    10.001   1_545     S
V22     V24    10.0   1_455     S
V22     V23    10.0   .     S
V22     V10    10.0   1_545     S
V22     V38    10.001   1_545     S
V23     V24    10.0   .     S
V23     V11    10.0   1_545     S
V23     V39    10.001   1_545     S
V24     V16    10.0   1_655     S
V24     V22    10.0   1_655     S
V24     V12    10.0   1_545     S
V24     V37    10.001   1_645     S
V25     V28    9.999   .     S
V25     V34    10.0   .     S
V25     V27    10.0   1_455     S
V25     V26    10.0   .     S
V25     V43    10.0   .     S
V26     V29    9.999   .     S
V26     V35    10.0   .     S
V26     V27    10.0   .     S
V26     V44    10.0   .     S
V27     V30    9.999   .     S
V27     V36    10.0   .     S
V27     V25    10.0   1_655     S
V27     V45    10.0   .     S
V28     V32    10.0   .     S
V28     V30    10.0   1_455     S
V28     V29    10.0   .     S
V28     V46    10.0   .     S
V28     V52    10.001   .     S
V29     V33    10.0   .     S
V29     V30    10.0   .     S
V29     V47    10.0   .     S
V29     V53    10.001   .     S
V30     V31    10.0   1_655     S
V30     V28    10.0   1_655     S
V30     V48    10.0   .     S
V30     V54    10.001   .     S
V31     V34    9.999   .     S
V31     V30    10.0   1_455     S
V31     V32    10.0   .     S
V31     V33    10.0   1_455     S
V31     V40    10.0   1_545     S
V31     V66    10.001   1_455     S
V32     V35    9.999   .     S
V32     V33    10.0   .     S
V32     V41    10.0   1_545     S
V32     V64    10.001   .     S
V33     V36    9.999   .     S
V33     V31    10.0   1_655     S
V33     V42    10.0   1_545     S
V33     V65    10.001   .     S
V34     V35    10.0   .     S
V34     V36    10.0   1_455     S
V34     V37    10.0   1_545     S
V35     V36    10.0   .     S
V35     V38    10.0   1_545     S
V36     V34    10.0   1_655     S
V36     V39    10.0   1_545     S
V37     V40    9.999   .     S
V37     V45    10.0   1_455     S
V37     V38    10.0   .     S
V37     V39    10.0   1_455     S
V37     V34    10.0   1_565     S
V37     V24    10.001   1_465     S
V38     V41    9.999   .     S
V38     V43    10.0   .     S
V38     V39    10.0   .     S
V38     V35    10.0   1_565     S
V38     V22    10.001   1_565     S
V39     V42    9.999   .     S
V39     V44    10.0   .     S
V39     V37    10.0   1_655     S
V39     V36    10.0   1_565     S
V39     V23    10.001   1_565     S
V40     V46    10.0   .     S
V40     V41    10.0   .     S
V40     V42    10.0   1_455     S
V40     V31    10.0   1_565     S
V40     V70    10.001   1_565     S
V41     V47    10.0   .     S
V41     V42    10.0   .     S
V41     V32    10.0   1_565     S
V41     V71    10.001   1_565     S
V42     V48    10.0   .     S
V42     V40    10.0   1_655     S
V42     V33    10.0   1_565     S
V42     V72    10.001   1_565     S
V43     V46    9.999   .     S
V43     V45    10.0   1_455     S
V43     V44    10.0   .     S
V44     V47    9.999   .     S
V44     V45    10.0   .     S
V45     V48    9.999   .     S
V45     V37    10.0   1_655     S
V45     V43    10.0   1_655     S
V46     V48    10.0   1_455     S
V46     V47    10.0   .     S
V46     V58    10.001   .     S
V47     V48    10.0   .     S
V47     V59    10.001   .     S
V48     V46    10.0   1_655     S
V48     V60    10.001   .     S
V49     V52    9.999   .     S
V49     V56    10.0   .     S
V49     V51    10.0   1_455     S
V49     V50    10.0   .     S
V49     V61    10.0   .     S
V49     V77    10.001   1_556     S
V50     V53    9.999   .     S
V50     V57    10.0   .     S
V50     V51    10.0   .     S
V50     V62    10.0   .     S
V50     V78    10.001   1_556     S
V51     V54    9.999   .     S
V51     V55    10.0   1_655     S
V51     V49    10.0   1_655     S
V51     V63    10.0   .     S
V51     V76    10.001   1_656     S
V52     V58    10.0   .     S
V52     V54    10.0   1_455     S
V52     V53    10.0   .     S
V52     V64    10.0   .     S
V53     V59    10.0   .     S
V53     V54    10.0   .     S
V53     V65    10.0   .     S
V54     V60    10.0   .     S
V54     V52    10.0   1_655     S
V54     V66    10.0   .     S
V55     V58    9.999   .     S
V55     V51    10.0   1_455     S
V55     V56    10.0   .     S
V55     V57    10.0   1_455     S
V55     V67    10.0   1_565     S
V55     V94    10.001   1_556     S
V56     V59    9.999   .     S
V56     V57    10.0   .     S
V56     V68    10.0   1_565     S
V56     V95    10.001   1_556     S
V57     V60    9.999   .     S
V57     V55    10.0   1_655     S
V57     V69    10.0   1_565     S
V57     V96    10.001   1_556     S
V58     V59    10.0   .     S
V58     V60    10.0   1_455     S
V58     V70    10.0   1_565     S
V59     V60    10.0   .     S
V59     V71    10.0   1_565     S
V60     V58    10.0   1_655     S
V60     V72    10.0   1_565     S
V61     V64    9.999   .     S
V61     V67    10.0   .     S
V61     V63    10.0   1_455     S
V61     V62    10.0   .     S
V61     V82    10.001   1_556     S
V62     V65    9.999   .     S
V62     V68    10.0   .     S
V62     V63    10.0   .     S
V62     V83    10.001   1_556     S
V63     V66    9.999   .     S
V63     V69    10.0   .     S
V63     V61    10.0   1_655     S
V63     V84    10.001   1_556     S
V64     V71    10.0   .     S
V64     V66    10.0   1_455     S
V64     V65    10.0   .     S
V65     V72    10.0   .     S
V65     V66    10.0   .     S
V66     V70    10.0   1_655     S
V66     V64    10.0   1_655     S
V66     V31    10.001   1_655     S
V67     V70    9.999   .     S
V67     V68    10.0   .     S
V67     V69    10.0   1_455     S
V67     V55    10.0   1_545     S
V67     V88    10.001   1_546     S
V68     V71    9.999   .     S
V68     V69    10.0   .     S
V68     V56    10.0   1_545     S
V68     V89    10.001   1_546     S
V69     V72    9.999   .     S
V69     V67    10.0   1_655     S
V69     V57    10.0   1_545     S
V69     V90    10.001   1_546     S
V70     V66    10.0   1_455     S
V70     V71    10.0   .     S
V70     V72    10.0   1_455     S
V70     V58    10.0   1_545     S
V70     V40    10.001   1_545     S
V71     V72    10.0   .     S
V71     V59    10.0   1_545     S
V71     V41    10.001   1_545     S
V72     V70    10.0   1_655     S
V72     V60    10.0   1_545     S
V72     V42    10.001   1_545     S
V73     V76    9.999   .     S
V73     V79    10.0   .     S
V73     V74    10.0   .     S
V73     V75    10.0   1_455     S
V73     V91    10.0   .     S
V74     V77    9.999   .     S
V74     V80    10.0   .     S
V74     V75    10.0   .     S
V74     V92    10.0   .     S
V75     V78    9.999   .     S
V75     V81    10.0   .     S
V75     V73    10.0   1_655     S
V75     V93    10.0   .     S
V76     V84    10.0   1_455     S
V76     V77    10.0   .     S
V76     V78    10.0   1_455     S
V76     V94    10.0   .     S
V76     V51    10.001   1_454     S
V77     V82    10.0   .     S
V77     V78    10.0   .     S
V77     V95    10.0   .     S
V77     V49    10.001   1_554     S
V78     V83    10.0   .     S
V78     V76    10.0   1_655     S
V78     V96    10.0   .     S
V78     V50    10.001   1_554     S
V79     V82    9.999   .     S
V79     V81    10.0   1_455     S
V79     V80    10.0   .     S
V79     V85    10.0   1_545     S
V80     V83    9.999   .     S
V80     V81    10.0   .     S
V80     V86    10.0   1_545     S
V81     V84    9.999   .     S
V81     V79    10.0   1_655     S
V81     V87    10.0   1_545     S
V82     V84    10.0   1_455     S
V82     V83    10.0   .     S
V82     V88    10.0   1_545     S
V82     V61    10.001   1_554     S
V83     V84    10.0   .     S
V83     V89    10.0   1_545     S
V83     V62    10.001   1_554     S
V84     V76    10.0   1_655     S
V84     V82    10.0   1_655     S
V84     V90    10.0   1_545     S
V84     V63    10.001   1_554     S
V85     V88    9.999   .     S
V85     V92    10.0   .     S
V85     V87    10.0   1_455     S
V85     V86    10.0   .     S
V85     V79    10.0   1_565     S
V85     V19    10.001   1_565     S
V86     V89    9.999   .     S
V86     V93    10.0   .     S
V86     V87    10.0   .     S
V86     V80    10.0   1_565     S
V86     V20    10.001   1_565     S
V87     V90    9.999   .     S
V87     V91    10.0   1_655     S
V87     V85    10.0   1_655     S
V87     V81    10.0   1_565     S
V87     V21    10.001   1_565     S
V88     V94    10.0   .     S
V88     V90    10.0   1_455     S
V88     V89    10.0   .     S
V88     V82    10.0   1_565     S
V88     V67    10.001   1_564     S
V89     V95    10.0   .     S
V89     V90    10.0   .     S
V89     V83    10.0   1_565     S
V89     V68    10.001   1_564     S
V90     V96    10.0   .     S
V90     V88    10.0   1_655     S
V90     V84    10.0   1_565     S
V90     V69    10.001   1_564     S
V91     V94    9.999   .     S
V91     V87    10.0   1_455     S
V91     V92    10.0   .     S
V91     V93    10.0   1_455     S
V91     V9    10.001   1_455     S
V92     V95    9.999   .     S
V92     V93    10.0   .     S
V93     V96    9.999   .     S
V93     V91    10.0   1_655     S
V94     V95    10.0   .     S
V94     V96    10.0   1_455     S
V94     V55    10.001   1_554     S
V95     V96    10.0   .     S
V95     V56    10.001   1_554     S
V96     V94    10.0   1_655     S
V96     V57    10.001   1_554     S
