data_son
_audit_creation_date              2019-12-31
_audit_creation_method            'Pymatgen'
_symmetry_space_group_name_H-M    'P1'
_symmetry_Int_Tables_number       1
loop_
_symmetry_equiv_pos_as_xyz
  x,y,z
_cell_length_a                    73.9948
_cell_length_b                    38.626
_cell_length_c                    30.0
_cell_angle_alpha                 90.0
_cell_angle_beta                 90.0
_cell_angle_gamma                 90.0
loop_
_atom_site_label
_atom_site_type_symbol
_atom_site_fract_x
_atom_site_fract_y
_atom_site_fract_z
V1     V     0.689   0.5023   0.1552
V2     V     0.689   0.5023   0.4886
V3     V     0.689   0.5023   0.8219
V4     V     0.5609   0.5023   0.2614
V5     V     0.5609   0.5023   0.5948
V6     V     0.5609   0.5023   0.9281
V7     V     0.689   0.7477   0.2614
V8     V     0.689   0.7477   0.5948
V9     V     0.689   0.7477   0.9281
V10     V     0.5609   0.7477   0.1552
V11     V     0.5609   0.7477   0.4886
V12     V     0.5609   0.7477   0.8219
V13     V     0.689   0.0023   0.3219
V14     V     0.689   0.0023   0.6552
V15     V     0.689   0.0023   0.9886
V16     V     0.5609   0.0023   0.0948
V17     V     0.5609   0.0023   0.4281
V18     V     0.5609   0.0023   0.7614
V19     V     0.689   0.2477   0.0948
V20     V     0.689   0.2477   0.4281
V21     V     0.689   0.2477   0.7614
V22     V     0.5609   0.2477   0.3219
V23     V     0.5609   0.2477   0.6552
V24     V     0.5609   0.2477   0.9886
V25     V     0.939   0.4977   0.2386
V26     V     0.939   0.4977   0.5719
V27     V     0.939   0.4977   0.9052
V28     V     0.8109   0.4977   0.0114
V29     V     0.8109   0.4977   0.3448
V30     V     0.8109   0.4977   0.6781
V31     V     0.939   0.2523   0.0114
V32     V     0.939   0.2523   0.3448
V33     V     0.939   0.2523   0.6781
V34     V     0.8109   0.2523   0.2386
V35     V     0.8109   0.2523   0.5719
V36     V     0.8109   0.2523   0.9052
V37     V     0.939   0.7523   0.1781
V38     V     0.939   0.7523   0.5114
V39     V     0.939   0.7523   0.8448
V40     V     0.8109   0.7523   0.0719
V41     V     0.8109   0.7523   0.4052
V42     V     0.8109   0.7523   0.7386
V43     V     0.939   0.9977   0.0719
V44     V     0.939   0.9977   0.4052
V45     V     0.939   0.9977   0.7386
V46     V     0.8109   0.9977   0.1781
V47     V     0.8109   0.9977   0.5114
V48     V     0.8109   0.9977   0.8448
V49     V     0.189   0.0023   0.1552
V50     V     0.189   0.0023   0.4886
V51     V     0.189   0.0023   0.8219
V52     V     0.061   0.0023   0.2614
V53     V     0.061   0.0023   0.5948
V54     V     0.061   0.0023   0.9281
V55     V     0.061   0.2477   0.1552
V56     V     0.061   0.2477   0.4886
V57     V     0.061   0.2477   0.8219
V58     V     0.189   0.2477   0.2614
V59     V     0.189   0.2477   0.5948
V60     V     0.189   0.2477   0.9281
V61     V     0.061   0.7477   0.3219
V62     V     0.061   0.7477   0.6552
V63     V     0.061   0.7477   0.9886
V64     V     0.189   0.7477   0.0948
V65     V     0.189   0.7477   0.4281
V66     V     0.189   0.7477   0.7614
V67     V     0.061   0.5023   0.0948
V68     V     0.061   0.5023   0.4281
V69     V     0.061   0.5023   0.7614
V70     V     0.189   0.5023   0.3219
V71     V     0.189   0.5023   0.6552
V72     V     0.189   0.5023   0.9886
V73     V     0.439   0.4977   0.0719
V74     V     0.439   0.4977   0.4052
V75     V     0.439   0.4977   0.7386
V76     V     0.311   0.4977   0.1781
V77     V     0.311   0.4977   0.5114
V78     V     0.311   0.4977   0.8448
V79     V     0.439   0.2523   0.1781
V80     V     0.439   0.2523   0.5114
V81     V     0.439   0.2523   0.8448
V82     V     0.311   0.2523   0.0719
V83     V     0.311   0.2523   0.4052
V84     V     0.311   0.2523   0.7386
V85     V     0.439   0.7523   0.0114
V86     V     0.439   0.7523   0.3448
V87     V     0.439   0.7523   0.6781
V88     V     0.311   0.7523   0.2386
V89     V     0.311   0.7523   0.5719
V90     V     0.311   0.7523   0.9052
V91     V     0.439   0.9977   0.2386
V92     V     0.439   0.9977   0.5719
V93     V     0.439   0.9977   0.9052
V94     V     0.311   0.9977   0.0114
V95     V     0.311   0.9977   0.3448
V96     V     0.311   0.9977   0.6781
loop_
_geom_bond_atom_site_label_1
_geom_bond_atom_site_label_2
_geom_bond_distance
_geom_bond_site_symmetry_2
_ccdc_geom_bond_type
V1     V4    10.0   .     S
V1     V7    10.0   .     S
V1     V2    10.0   .     S
V1     V3    10.0   1_554     S
V1     V19    10.0   .     S
V1     V28    10.0   .     S
V2     V5    10.0   .     S
V2     V8    10.0   .     S
V2     V3    10.0   .     S
V2     V20    10.0   .     S
V2     V29    10.0   .     S
V3     V6    10.0   .     S
V3     V9    10.0   .     S
V3     V1    10.0   1_556     S
V3     V21    10.0   .     S
V3     V30    10.0   .     S
V4     V10    10.0   .     S
V4     V6    10.0   1_554     S
V4     V5    10.0   .     S
V4     V22    10.0   .     S
V4     V74    10.0   .     S
V5     V11    10.0   .     S
V5     V6    10.0   .     S
V5     V23    10.0   .     S
V5     V75    10.0   .     S
V6     V12    10.0   .     S
V6     V4    10.0   1_556     S
V6     V24    10.0   .     S
V6     V73    10.0   1_556     S
V7     V10    10.0   .     S
V7     V9    10.0   1_554     S
V7     V8    10.0   .     S
V7     V13    10.0   1_565     S
V7     V41    10.0   .     S
V8     V11    10.0   .     S
V8     V9    10.0   .     S
V8     V14    10.0   1_565     S
V8     V42    10.0   .     S
V9     V12    10.0   .     S
V9     V7    10.0   1_556     S
V9     V15    10.0   1_565     S
V9     V40    10.0   1_556     S
V10     V11    10.0   .     S
V10     V12    10.0   1_554     S
V10     V16    10.0   1_565     S
V10     V85    10.0   .     S
V11     V12    10.0   .     S
V11     V17    10.0   1_565     S
V11     V86    10.0   .     S
V12     V10    10.0   1_556     S
V12     V18    10.0   1_565     S
V12     V87    10.0   .     S
V13     V17    10.0   .     S
V13     V20    10.0   .     S
V13     V15    10.0   1_554     S
V13     V14    10.0   .     S
V13     V7    10.0   1_545     S
V13     V46    10.0   1_545     S
V14     V18    10.0   .     S
V14     V21    10.0   .     S
V14     V15    10.0   .     S
V14     V8    10.0   1_545     S
V14     V47    10.0   1_545     S
V15     V16    10.0   1_556     S
V15     V19    10.0   1_556     S
V15     V13    10.0   1_556     S
V15     V9    10.0   1_545     S
V15     V48    10.0   1_545     S
V16     V10    10.0   1_545     S
V16     V15    10.0   1_554     S
V16     V24    10.0   1_554     S
V16     V17    10.0   .     S
V16     V18    10.0   1_554     S
V16     V91    10.0   1_545     S
V17     V11    10.0   1_545     S
V17     V22    10.0   .     S
V17     V18    10.0   .     S
V17     V92    10.0   1_545     S
V18     V12    10.0   1_545     S
V18     V23    10.0   .     S
V18     V16    10.0   1_556     S
V18     V93    10.0   1_545     S
V19     V24    10.0   1_554     S
V19     V15    10.0   1_554     S
V19     V20    10.0   .     S
V19     V21    10.0   1_554     S
V19     V34    10.0   .     S
V20     V22    10.0   .     S
V20     V21    10.0   .     S
V20     V35    10.0   .     S
V21     V23    10.0   .     S
V21     V19    10.0   1_556     S
V21     V36    10.0   .     S
V22     V24    10.0   1_554     S
V22     V23    10.0   .     S
V22     V79    10.0   .     S
V23     V24    10.0   .     S
V23     V80    10.0   .     S
V24     V19    10.0   1_556     S
V24     V16    10.0   1_556     S
V24     V22    10.0   1_556     S
V24     V81    10.0   .     S
V25     V29    10.0   .     S
V25     V32    10.0   .     S
V25     V27    10.0   1_554     S
V25     V26    10.0   .     S
V25     V37    10.0   .     S
V25     V67    10.0   1_655     S
V26     V30    10.0   .     S
V26     V33    10.0   .     S
V26     V27    10.0   .     S
V26     V38    10.0   .     S
V26     V68    10.0   1_655     S
V27     V28    10.0   1_556     S
V27     V31    10.0   1_556     S
V27     V25    10.0   1_556     S
V27     V39    10.0   .     S
V27     V69    10.0   1_655     S
V28     V27    10.0   1_554     S
V28     V36    10.0   1_554     S
V28     V29    10.0   .     S
V28     V30    10.0   1_554     S
V28     V40    10.0   .     S
V29     V34    10.0   .     S
V29     V30    10.0   .     S
V29     V41    10.0   .     S
V30     V35    10.0   .     S
V30     V28    10.0   1_556     S
V30     V42    10.0   .     S
V31     V36    10.0   1_554     S
V31     V27    10.0   1_554     S
V31     V32    10.0   .     S
V31     V33    10.0   1_554     S
V31     V43    10.0   1_545     S
V31     V55    10.0   1_655     S
V32     V34    10.0   .     S
V32     V33    10.0   .     S
V32     V44    10.0   1_545     S
V32     V56    10.0   1_655     S
V33     V35    10.0   .     S
V33     V31    10.0   1_556     S
V33     V45    10.0   1_545     S
V33     V57    10.0   1_655     S
V34     V36    10.0   1_554     S
V34     V35    10.0   .     S
V34     V46    10.0   1_545     S
V35     V36    10.0   .     S
V35     V47    10.0   1_545     S
V36     V31    10.0   1_556     S
V36     V28    10.0   1_556     S
V36     V34    10.0   1_556     S
V36     V48    10.0   1_545     S
V37     V40    10.0   .     S
V37     V43    10.0   .     S
V37     V39    10.0   1_554     S
V37     V38    10.0   .     S
V37     V61    10.0   1_655     S
V38     V41    10.0   .     S
V38     V44    10.0   .     S
V38     V39    10.0   .     S
V38     V62    10.0   1_655     S
V39     V42    10.0   .     S
V39     V45    10.0   .     S
V39     V37    10.0   1_556     S
V39     V63    10.0   1_655     S
V40     V46    10.0   .     S
V40     V41    10.0   .     S
V40     V42    10.0   1_554     S
V40     V9    10.0   1_554     S
V41     V47    10.0   .     S
V41     V42    10.0   .     S
V42     V48    10.0   .     S
V42     V40    10.0   1_556     S
V43     V46    10.0   .     S
V43     V44    10.0   .     S
V43     V45    10.0   1_554     S
V43     V31    10.0   1_565     S
V43     V54    10.0   1_664     S
V44     V47    10.0   .     S
V44     V45    10.0   .     S
V44     V32    10.0   1_565     S
V44     V52    10.0   1_665     S
V45     V48    10.0   .     S
V45     V43    10.0   1_556     S
V45     V33    10.0   1_565     S
V45     V53    10.0   1_665     S
V46     V48    10.0   1_554     S
V46     V47    10.0   .     S
V46     V34    10.0   1_565     S
V46     V13    10.0   1_565     S
V47     V48    10.0   .     S
V47     V35    10.0   1_565     S
V47     V14    10.0   1_565     S
V48     V46    10.0   1_556     S
V48     V36    10.0   1_565     S
V48     V15    10.0   1_565     S
V49     V52    10.0   .     S
V49     V58    10.0   .     S
V49     V50    10.0   .     S
V49     V51    10.0   1_554     S
V49     V64    10.0   1_545     S
V49     V94    10.0   1_545     S
V50     V53    10.0   .     S
V50     V59    10.0   .     S
V50     V51    10.0   .     S
V50     V65    10.0   1_545     S
V50     V95    10.0   1_545     S
V51     V54    10.0   .     S
V51     V60    10.0   .     S
V51     V49    10.0   1_556     S
V51     V66    10.0   1_545     S
V51     V96    10.0   1_545     S
V52     V44    10.0   1_445     S
V52     V55    10.0   .     S
V52     V54    10.0   1_554     S
V52     V53    10.0   .     S
V52     V61    10.0   1_545     S
V53     V45    10.0   1_445     S
V53     V56    10.0   .     S
V53     V54    10.0   .     S
V53     V62    10.0   1_545     S
V54     V43    10.0   1_446     S
V54     V57    10.0   .     S
V54     V52    10.0   1_556     S
V54     V63    10.0   1_545     S
V55     V31    10.0   1_455     S
V55     V58    10.0   .     S
V55     V56    10.0   .     S
V55     V57    10.0   1_554     S
V55     V67    10.0   .     S
V56     V32    10.0   1_455     S
V56     V59    10.0   .     S
V56     V57    10.0   .     S
V56     V68    10.0   .     S
V57     V33    10.0   1_455     S
V57     V60    10.0   .     S
V57     V55    10.0   1_556     S
V57     V69    10.0   .     S
V58     V60    10.0   1_554     S
V58     V59    10.0   .     S
V58     V70    10.0   .     S
V58     V83    10.0   .     S
V59     V60    10.0   .     S
V59     V71    10.0   .     S
V59     V84    10.0   .     S
V60     V58    10.0   1_556     S
V60     V72    10.0   .     S
V60     V82    10.0   1_556     S
V61     V37    10.0   1_455     S
V61     V65    10.0   .     S
V61     V68    10.0   .     S
V61     V63    10.0   1_554     S
V61     V62    10.0   .     S
V61     V52    10.0   1_565     S
V62     V38    10.0   1_455     S
V62     V66    10.0   .     S
V62     V69    10.0   .     S
V62     V63    10.0   .     S
V62     V53    10.0   1_565     S
V63     V39    10.0   1_455     S
V63     V64    10.0   1_556     S
V63     V67    10.0   1_556     S
V63     V61    10.0   1_556     S
V63     V54    10.0   1_565     S
V64     V49    10.0   1_565     S
V64     V63    10.0   1_554     S
V64     V72    10.0   1_554     S
V64     V65    10.0   .     S
V64     V66    10.0   1_554     S
V64     V88    10.0   .     S
V65     V50    10.0   1_565     S
V65     V70    10.0   .     S
V65     V66    10.0   .     S
V65     V89    10.0   .     S
V66     V51    10.0   1_565     S
V66     V71    10.0   .     S
V66     V64    10.0   1_556     S
V66     V90    10.0   .     S
V67     V25    10.0   1_455     S
V67     V72    10.0   1_554     S
V67     V63    10.0   1_554     S
V67     V68    10.0   .     S
V67     V69    10.0   1_554     S
V68     V26    10.0   1_455     S
V68     V70    10.0   .     S
V68     V69    10.0   .     S
V69     V27    10.0   1_455     S
V69     V71    10.0   .     S
V69     V67    10.0   1_556     S
V70     V72    10.0   1_554     S
V70     V71    10.0   .     S
V70     V76    10.0   .     S
V71     V72    10.0   .     S
V71     V77    10.0   .     S
V72     V67    10.0   1_556     S
V72     V64    10.0   1_556     S
V72     V70    10.0   1_556     S
V72     V78    10.0   .     S
V73     V6    10.0   1_554     S
V73     V76    10.0   .     S
V73     V79    10.0   .     S
V73     V74    10.0   .     S
V73     V75    10.0   1_554     S
V73     V85    10.0   .     S
V74     V77    10.0   .     S
V74     V80    10.0   .     S
V74     V75    10.0   .     S
V74     V86    10.0   .     S
V75     V78    10.0   .     S
V75     V81    10.0   .     S
V75     V73    10.0   1_556     S
V75     V87    10.0   .     S
V76     V82    10.0   .     S
V76     V78    10.0   1_554     S
V76     V77    10.0   .     S
V76     V88    10.0   .     S
V77     V83    10.0   .     S
V77     V78    10.0   .     S
V77     V89    10.0   .     S
V78     V84    10.0   .     S
V78     V76    10.0   1_556     S
V78     V90    10.0   .     S
V79     V82    10.0   .     S
V79     V81    10.0   1_554     S
V79     V80    10.0   .     S
V79     V91    10.0   1_545     S
V80     V83    10.0   .     S
V80     V81    10.0   .     S
V80     V92    10.0   1_545     S
V81     V84    10.0   .     S
V81     V79    10.0   1_556     S
V81     V93    10.0   1_545     S
V82     V83    10.0   .     S
V82     V84    10.0   1_554     S
V82     V94    10.0   1_545     S
V82     V60    10.0   1_554     S
V83     V84    10.0   .     S
V83     V95    10.0   1_545     S
V84     V82    10.0   1_556     S
V84     V96    10.0   1_545     S
V85     V90    10.0   1_554     S
V85     V93    10.0   1_554     S
V85     V86    10.0   .     S
V85     V87    10.0   1_554     S
V86     V88    10.0   .     S
V86     V91    10.0   .     S
V86     V87    10.0   .     S
V87     V89    10.0   .     S
V87     V92    10.0   .     S
V87     V85    10.0   1_556     S
V88     V95    10.0   .     S
V88     V90    10.0   1_554     S
V88     V89    10.0   .     S
V89     V96    10.0   .     S
V89     V90    10.0   .     S
V90     V85    10.0   1_556     S
V90     V94    10.0   1_556     S
V90     V88    10.0   1_556     S
V91     V16    10.0   1_565     S
V91     V95    10.0   .     S
V91     V93    10.0   1_554     S
V91     V92    10.0   .     S
V91     V79    10.0   1_565     S
V92     V17    10.0   1_565     S
V92     V96    10.0   .     S
V92     V93    10.0   .     S
V92     V80    10.0   1_565     S
V93     V18    10.0   1_565     S
V93     V94    10.0   1_556     S
V93     V85    10.0   1_556     S
V93     V91    10.0   1_556     S
V93     V81    10.0   1_565     S
V94     V93    10.0   1_554     S
V94     V90    10.0   1_554     S
V94     V95    10.0   .     S
V94     V96    10.0   1_554     S
V94     V82    10.0   1_565     S
V94     V49    10.0   1_565     S
V95     V96    10.0   .     S
V95     V83    10.0   1_565     S
V95     V50    10.0   1_565     S
V96     V94    10.0   1_556     S
V96     V84    10.0   1_565     S
V96     V51    10.0   1_565     S
