data_soo
_audit_creation_date              2019-12-31
_audit_creation_method            'Pymatgen'
_symmetry_space_group_name_H-M    'P1'
_symmetry_Int_Tables_number       1
loop_
_symmetry_equiv_pos_as_xyz
  x,y,z
_cell_length_a                    78.6371
_cell_length_b                    37.3202
_cell_length_c                    30.0003
_cell_angle_alpha                 90.0
_cell_angle_beta                 90.0
_cell_angle_gamma                 90.0
loop_
_atom_site_label
_atom_site_type_symbol
_atom_site_fract_x
_atom_site_fract_y
_atom_site_fract_z
V1     V     0.6886   0.259   0.0417
V2     V     0.6886   0.259   0.375
V3     V     0.6886   0.259   0.7083
V4     V     0.5614   0.259   0.0417
V5     V     0.5614   0.259   0.375
V6     V     0.5614   0.259   0.7083
V7     V     0.6886   0.991   0.0417
V8     V     0.6886   0.991   0.375
V9     V     0.6886   0.991   0.7083
V10     V     0.5614   0.991   0.0417
V11     V     0.5614   0.991   0.375
V12     V     0.5614   0.991   0.7083
V13     V     0.6886   0.759   0.2083
V14     V     0.6886   0.759   0.5417
V15     V     0.6886   0.759   0.875
V16     V     0.5614   0.759   0.2083
V17     V     0.5614   0.759   0.5417
V18     V     0.5614   0.759   0.875
V19     V     0.6886   0.491   0.2083
V20     V     0.6886   0.491   0.5417
V21     V     0.6886   0.491   0.875
V22     V     0.5614   0.491   0.2083
V23     V     0.5614   0.491   0.5417
V24     V     0.5614   0.491   0.875
V25     V     0.3114   0.241   0.125
V26     V     0.3114   0.241   0.4583
V27     V     0.3114   0.241   0.7917
V28     V     0.4386   0.241   0.125
V29     V     0.4386   0.241   0.4583
V30     V     0.4386   0.241   0.7917
V31     V     0.4386   0.509   0.125
V32     V     0.4386   0.509   0.4583
V33     V     0.4386   0.509   0.7917
V34     V     0.3114   0.509   0.125
V35     V     0.3114   0.509   0.4583
V36     V     0.3114   0.509   0.7917
V37     V     0.4386   0.741   0.2917
V38     V     0.4386   0.741   0.625
V39     V     0.4386   0.741   0.9583
V40     V     0.3114   0.741   0.2917
V41     V     0.3114   0.741   0.625
V42     V     0.3114   0.741   0.9583
V43     V     0.3114   0.009   0.2917
V44     V     0.3114   0.009   0.625
V45     V     0.3114   0.009   0.9583
V46     V     0.4386   0.009   0.2917
V47     V     0.4386   0.009   0.625
V48     V     0.4386   0.009   0.9583
V49     V     0.0614   0.259   0.2083
V50     V     0.0614   0.259   0.5417
V51     V     0.0614   0.259   0.875
V52     V     0.1886   0.259   0.2083
V53     V     0.1886   0.259   0.5417
V54     V     0.1886   0.259   0.875
V55     V     0.0614   0.991   0.2083
V56     V     0.0614   0.991   0.5417
V57     V     0.0614   0.991   0.875
V58     V     0.1886   0.991   0.2083
V59     V     0.1886   0.991   0.5417
V60     V     0.1886   0.991   0.875
V61     V     0.0614   0.759   0.0417
V62     V     0.0614   0.759   0.375
V63     V     0.0614   0.759   0.7083
V64     V     0.1886   0.759   0.0417
V65     V     0.1886   0.759   0.375
V66     V     0.1886   0.759   0.7083
V67     V     0.0614   0.491   0.0417
V68     V     0.0614   0.491   0.375
V69     V     0.0614   0.491   0.7083
V70     V     0.1886   0.491   0.0417
V71     V     0.1886   0.491   0.375
V72     V     0.1886   0.491   0.7083
V73     V     0.8114   0.741   0.125
V74     V     0.8114   0.741   0.4583
V75     V     0.8114   0.741   0.7917
V76     V     0.9386   0.741   0.125
V77     V     0.9386   0.741   0.4583
V78     V     0.9386   0.741   0.7917
V79     V     0.8114   0.009   0.125
V80     V     0.8114   0.009   0.4583
V81     V     0.8114   0.009   0.7917
V82     V     0.9386   0.009   0.125
V83     V     0.9386   0.009   0.4583
V84     V     0.9386   0.009   0.7917
V85     V     0.8114   0.241   0.2917
V86     V     0.8114   0.241   0.625
V87     V     0.8114   0.241   0.9583
V88     V     0.9386   0.241   0.2917
V89     V     0.9386   0.241   0.625
V90     V     0.9386   0.241   0.9583
V91     V     0.8114   0.509   0.2917
V92     V     0.8114   0.509   0.625
V93     V     0.8114   0.509   0.9583
V94     V     0.9386   0.509   0.2917
V95     V     0.9386   0.509   0.625
V96     V     0.9386   0.509   0.9583
loop_
_geom_bond_atom_site_label_1
_geom_bond_atom_site_label_2
_geom_bond_distance
_geom_bond_site_symmetry_2
_ccdc_geom_bond_type
V1     V4    9.999   .     S
V1     V7    10.0   1_545     S
V1     V2    10.0   .     S
V1     V3    10.0   1_554     S
V1     V19    10.0   .     S
V1     V21    10.0   1_554     S
V1     V87    10.0   1_554     S
V2     V5    9.999   .     S
V2     V8    10.0   1_545     S
V2     V3    10.0   .     S
V2     V20    10.0   .     S
V2     V19    10.0   .     S
V2     V85    10.0   .     S
V3     V6    9.999   .     S
V3     V9    10.0   1_545     S
V3     V1    10.0   1_556     S
V3     V21    10.0   .     S
V3     V20    10.0   .     S
V3     V86    10.0   .     S
V4     V10    10.0   1_545     S
V4     V5    10.0   .     S
V4     V6    10.0   1_554     S
V4     V24    10.0   1_554     S
V4     V22    10.0   .     S
V4     V28    10.0   .     S
V5     V11    10.0   1_545     S
V5     V6    10.0   .     S
V5     V22    10.0   .     S
V5     V23    10.0   .     S
V5     V29    10.0   .     S
V6     V12    10.0   1_545     S
V6     V4    10.0   1_556     S
V6     V23    10.0   .     S
V6     V24    10.0   .     S
V6     V30    10.0   .     S
V7     V10    9.999   .     S
V7     V1    10.0   1_565     S
V7     V8    10.0   .     S
V7     V9    10.0   1_554     S
V7     V15    10.0   1_554     S
V7     V13    10.0   .     S
V7     V79    10.0   1_565     S
V8     V11    9.999   .     S
V8     V2    10.0   1_565     S
V8     V9    10.0   .     S
V8     V13    10.0   .     S
V8     V14    10.0   .     S
V8     V80    10.0   1_565     S
V9     V12    9.999   .     S
V9     V3    10.0   1_565     S
V9     V7    10.0   1_556     S
V9     V14    10.0   .     S
V9     V15    10.0   .     S
V9     V81    10.0   1_565     S
V10     V4    10.0   1_565     S
V10     V11    10.0   .     S
V10     V12    10.0   1_554     S
V10     V16    10.0   .     S
V10     V18    10.0   1_554     S
V10     V48    10.0   1_564     S
V11     V5    10.0   1_565     S
V11     V12    10.0   .     S
V11     V17    10.0   .     S
V11     V16    10.0   .     S
V11     V46    10.0   1_565     S
V12     V6    10.0   1_565     S
V12     V10    10.0   1_556     S
V12     V18    10.0   .     S
V12     V17    10.0   .     S
V12     V47    10.0   1_565     S
V13     V16    9.999   .     S
V13     V19    10.0   .     S
V13     V15    10.0   1_554     S
V13     V14    10.0   .     S
V13     V73    10.0   .     S
V14     V17    9.999   .     S
V14     V20    10.0   .     S
V14     V15    10.0   .     S
V14     V74    10.0   .     S
V15     V7    10.0   1_556     S
V15     V18    9.999   .     S
V15     V21    10.0   .     S
V15     V13    10.0   1_556     S
V15     V75    10.0   .     S
V16     V22    10.0   .     S
V16     V18    10.0   1_554     S
V16     V17    10.0   .     S
V16     V37    10.0   .     S
V17     V23    10.0   .     S
V17     V18    10.0   .     S
V17     V38    10.0   .     S
V18     V10    10.0   1_556     S
V18     V24    10.0   .     S
V18     V16    10.0   1_556     S
V18     V39    10.0   .     S
V19     V22    9.999   .     S
V19     V21    10.0   1_554     S
V19     V20    10.0   .     S
V19     V91    10.0   .     S
V20     V23    9.999   .     S
V20     V21    10.0   .     S
V20     V92    10.0   .     S
V21     V1    10.0   1_556     S
V21     V24    9.999   .     S
V21     V19    10.0   1_556     S
V21     V93    10.0   .     S
V22     V24    10.0   1_554     S
V22     V23    10.0   .     S
V22     V31    10.0   .     S
V23     V24    10.0   .     S
V23     V32    10.0   .     S
V24     V22    10.0   1_556     S
V24     V4    10.0   1_556     S
V24     V33    10.0   .     S
V25     V28    9.999   .     S
V25     V34    10.0   .     S
V25     V26    10.0   .     S
V25     V27    10.0   1_554     S
V25     V45    10.0   1_554     S
V25     V43    10.0   .     S
V25     V52    10.0   .     S
V26     V29    9.999   .     S
V26     V35    10.0   .     S
V26     V27    10.0   .     S
V26     V43    10.0   .     S
V26     V44    10.0   .     S
V26     V53    10.0   .     S
V27     V30    9.999   .     S
V27     V36    10.0   .     S
V27     V25    10.0   1_556     S
V27     V44    10.0   .     S
V27     V45    10.0   .     S
V27     V54    10.0   .     S
V28     V31    10.0   .     S
V28     V29    10.0   .     S
V28     V30    10.0   1_554     S
V28     V46    10.0   .     S
V28     V48    10.0   1_554     S
V29     V32    10.0   .     S
V29     V30    10.0   .     S
V29     V47    10.0   .     S
V29     V46    10.0   .     S
V30     V33    10.0   .     S
V30     V28    10.0   1_556     S
V30     V48    10.0   .     S
V30     V47    10.0   .     S
V31     V34    9.999   .     S
V31     V32    10.0   .     S
V31     V33    10.0   1_554     S
V31     V39    10.0   1_554     S
V31     V37    10.0   .     S
V32     V35    9.999   .     S
V32     V33    10.0   .     S
V32     V37    10.0   .     S
V32     V38    10.0   .     S
V33     V36    9.999   .     S
V33     V31    10.0   1_556     S
V33     V38    10.0   .     S
V33     V39    10.0   .     S
V34     V35    10.0   .     S
V34     V36    10.0   1_554     S
V34     V40    10.0   .     S
V34     V42    10.0   1_554     S
V34     V70    10.0   .     S
V35     V36    10.0   .     S
V35     V41    10.0   .     S
V35     V40    10.0   .     S
V35     V71    10.0   .     S
V36     V34    10.0   1_556     S
V36     V42    10.0   .     S
V36     V41    10.0   .     S
V36     V72    10.0   .     S
V37     V40    9.999   .     S
V37     V46    10.0   1_565     S
V37     V39    10.0   1_554     S
V37     V38    10.0   .     S
V38     V41    9.999   .     S
V38     V47    10.0   1_565     S
V38     V39    10.0   .     S
V39     V31    10.0   1_556     S
V39     V42    9.999   .     S
V39     V48    10.0   1_565     S
V39     V37    10.0   1_556     S
V40     V43    10.0   1_565     S
V40     V42    10.0   1_554     S
V40     V41    10.0   .     S
V40     V65    10.0   .     S
V41     V44    10.0   1_565     S
V41     V42    10.0   .     S
V41     V66    10.0   .     S
V42     V34    10.0   1_556     S
V42     V45    10.0   1_565     S
V42     V40    10.0   1_556     S
V42     V64    10.0   1_556     S
V43     V46    9.999   .     S
V43     V40    10.0   1_545     S
V43     V45    10.0   1_554     S
V43     V44    10.0   .     S
V43     V58    10.0   1_545     S
V44     V47    9.999   .     S
V44     V41    10.0   1_545     S
V44     V45    10.0   .     S
V44     V59    10.0   1_545     S
V45     V25    10.0   1_556     S
V45     V48    9.999   .     S
V45     V42    10.0   1_545     S
V45     V43    10.0   1_556     S
V45     V60    10.0   1_545     S
V46     V37    10.0   1_545     S
V46     V48    10.0   1_554     S
V46     V47    10.0   .     S
V46     V11    10.0   1_545     S
V47     V38    10.0   1_545     S
V47     V48    10.0   .     S
V47     V12    10.0   1_545     S
V48     V39    10.0   1_545     S
V48     V46    10.0   1_556     S
V48     V28    10.0   1_556     S
V48     V10    10.0   1_546     S
V49     V67    10.0   .     S
V49     V68    10.0   .     S
V49     V52    9.999   .     S
V49     V55    10.0   1_545     S
V49     V51    10.0   1_554     S
V49     V50    10.0   .     S
V49     V88    10.0   1_455     S
V50     V68    10.0   .     S
V50     V69    10.0   .     S
V50     V53    9.999   .     S
V50     V56    10.0   1_545     S
V50     V51    10.0   .     S
V50     V89    10.0   1_455     S
V51     V69    10.0   .     S
V51     V67    10.0   1_556     S
V51     V54    9.999   .     S
V51     V57    10.0   1_545     S
V51     V49    10.0   1_556     S
V51     V90    10.0   1_455     S
V52     V71    10.0   .     S
V52     V70    10.0   .     S
V52     V58    10.0   1_545     S
V52     V54    10.0   1_554     S
V52     V53    10.0   .     S
V53     V72    10.0   .     S
V53     V71    10.0   .     S
V53     V59    10.0   1_545     S
V53     V54    10.0   .     S
V54     V70    10.0   1_556     S
V54     V72    10.0   .     S
V54     V60    10.0   1_545     S
V54     V52    10.0   1_556     S
V55     V58    9.999   .     S
V55     V49    10.0   1_565     S
V55     V57    10.0   1_554     S
V55     V56    10.0   .     S
V55     V62    10.0   .     S
V55     V61    10.0   .     S
V55     V82    10.0   1_465     S
V56     V59    9.999   .     S
V56     V50    10.0   1_565     S
V56     V57    10.0   .     S
V56     V63    10.0   .     S
V56     V62    10.0   .     S
V56     V83    10.0   1_465     S
V57     V60    9.999   .     S
V57     V51    10.0   1_565     S
V57     V55    10.0   1_556     S
V57     V61    10.0   1_556     S
V57     V63    10.0   .     S
V57     V84    10.0   1_465     S
V58     V43    10.0   1_565     S
V58     V64    10.0   .     S
V58     V65    10.0   .     S
V58     V52    10.0   1_565     S
V58     V60    10.0   1_554     S
V58     V59    10.0   .     S
V59     V44    10.0   1_565     S
V59     V65    10.0   .     S
V59     V66    10.0   .     S
V59     V53    10.0   1_565     S
V59     V60    10.0   .     S
V60     V45    10.0   1_565     S
V60     V66    10.0   .     S
V60     V64    10.0   1_556     S
V60     V54    10.0   1_565     S
V60     V58    10.0   1_556     S
V61     V64    9.999   .     S
V61     V67    10.0   .     S
V61     V62    10.0   .     S
V61     V63    10.0   1_554     S
V61     V57    10.0   1_554     S
V61     V76    10.0   1_455     S
V62     V65    9.999   .     S
V62     V68    10.0   .     S
V62     V63    10.0   .     S
V62     V77    10.0   1_455     S
V63     V66    9.999   .     S
V63     V69    10.0   .     S
V63     V61    10.0   1_556     S
V63     V78    10.0   1_455     S
V64     V42    10.0   1_554     S
V64     V60    10.0   1_554     S
V64     V70    10.0   .     S
V64     V65    10.0   .     S
V64     V66    10.0   1_554     S
V65     V71    10.0   .     S
V65     V66    10.0   .     S
V66     V72    10.0   .     S
V66     V64    10.0   1_556     S
V67     V51    10.0   1_554     S
V67     V70    9.999   .     S
V67     V68    10.0   .     S
V67     V69    10.0   1_554     S
V67     V96    10.0   1_454     S
V68     V71    9.999   .     S
V68     V69    10.0   .     S
V68     V94    10.0   1_455     S
V69     V72    9.999   .     S
V69     V67    10.0   1_556     S
V69     V95    10.0   1_455     S
V70     V54    10.0   1_554     S
V70     V71    10.0   .     S
V70     V72    10.0   1_554     S
V71     V72    10.0   .     S
V72     V70    10.0   1_556     S
V73     V93    10.0   1_554     S
V73     V91    10.0   .     S
V73     V76    9.999   .     S
V73     V79    10.0   1_565     S
V73     V74    10.0   .     S
V73     V75    10.0   1_554     S
V74     V91    10.0   .     S
V74     V92    10.0   .     S
V74     V77    9.999   .     S
V74     V80    10.0   1_565     S
V74     V75    10.0   .     S
V75     V92    10.0   .     S
V75     V93    10.0   .     S
V75     V78    9.999   .     S
V75     V81    10.0   1_565     S
V75     V73    10.0   1_556     S
V76     V94    10.0   .     S
V76     V96    10.0   1_554     S
V76     V82    10.0   1_565     S
V76     V77    10.0   .     S
V76     V78    10.0   1_554     S
V76     V61    10.0   1_655     S
V77     V95    10.0   .     S
V77     V94    10.0   .     S
V77     V83    10.0   1_565     S
V77     V78    10.0   .     S
V77     V62    10.0   1_655     S
V78     V96    10.0   .     S
V78     V95    10.0   .     S
V78     V84    10.0   1_565     S
V78     V76    10.0   1_556     S
V78     V63    10.0   1_655     S
V79     V82    9.999   .     S
V79     V73    10.0   1_545     S
V79     V80    10.0   .     S
V79     V81    10.0   1_554     S
V79     V85    10.0   .     S
V79     V87    10.0   1_554     S
V79     V7    10.0   1_545     S
V80     V83    9.999   .     S
V80     V74    10.0   1_545     S
V80     V81    10.0   .     S
V80     V86    10.0   .     S
V80     V85    10.0   .     S
V80     V8    10.0   1_545     S
V81     V84    9.999   .     S
V81     V75    10.0   1_545     S
V81     V79    10.0   1_556     S
V81     V87    10.0   .     S
V81     V86    10.0   .     S
V81     V9    10.0   1_545     S
V82     V76    10.0   1_545     S
V82     V83    10.0   .     S
V82     V84    10.0   1_554     S
V82     V90    10.0   1_554     S
V82     V88    10.0   .     S
V82     V55    10.0   1_645     S
V83     V77    10.0   1_545     S
V83     V84    10.0   .     S
V83     V88    10.0   .     S
V83     V89    10.0   .     S
V83     V56    10.0   1_645     S
V84     V78    10.0   1_545     S
V84     V82    10.0   1_556     S
V84     V89    10.0   .     S
V84     V90    10.0   .     S
V84     V57    10.0   1_645     S
V85     V88    9.999   .     S
V85     V91    10.0   .     S
V85     V87    10.0   1_554     S
V85     V86    10.0   .     S
V86     V89    9.999   .     S
V86     V92    10.0   .     S
V86     V87    10.0   .     S
V87     V90    9.999   .     S
V87     V93    10.0   .     S
V87     V85    10.0   1_556     S
V87     V79    10.0   1_556     S
V87     V1    10.0   1_556     S
V88     V94    10.0   .     S
V88     V90    10.0   1_554     S
V88     V89    10.0   .     S
V88     V49    10.0   1_655     S
V89     V95    10.0   .     S
V89     V90    10.0   .     S
V89     V50    10.0   1_655     S
V90     V82    10.0   1_556     S
V90     V96    10.0   .     S
V90     V88    10.0   1_556     S
V90     V51    10.0   1_655     S
V91     V94    9.999   .     S
V91     V93    10.0   1_554     S
V91     V92    10.0   .     S
V92     V95    9.999   .     S
V92     V93    10.0   .     S
V93     V73    10.0   1_556     S
V93     V96    9.999   .     S
V93     V91    10.0   1_556     S
V94     V96    10.0   1_554     S
V94     V95    10.0   .     S
V94     V68    10.0   1_655     S
V95     V96    10.0   .     S
V95     V69    10.0   1_655     S
V96     V76    10.0   1_556     S
V96     V94    10.0   1_556     S
V96     V67    10.0   1_656     S
