data_sop
_audit_creation_date              2019-12-31
_audit_creation_method            'Pymatgen'
_symmetry_space_group_name_H-M    'P1'
_symmetry_Int_Tables_number       1
loop_
_symmetry_equiv_pos_as_xyz
  x,y,z
_cell_length_a                    65.2399
_cell_length_b                    28.284
_cell_length_c                    34.1422
_cell_angle_alpha                 90.0
_cell_angle_beta                 90.0
_cell_angle_gamma                 90.0
loop_
_atom_site_label
_atom_site_type_symbol
_atom_site_fract_x
_atom_site_fract_y
_atom_site_fract_z
V1     V     0.6792   0.1875   0.0214
V2     V     0.6792   0.6875   0.0214
V3     V     0.5708   0.1875   0.2286
V4     V     0.5708   0.6875   0.2286
V5     V     0.6792   0.4375   0.2286
V6     V     0.6792   0.9375   0.2286
V7     V     0.5708   0.4375   0.0214
V8     V     0.5708   0.9375   0.0214
V9     V     0.6792   0.1875   0.7286
V10     V     0.6792   0.6875   0.7286
V11     V     0.5708   0.1875   0.5214
V12     V     0.5708   0.6875   0.5214
V13     V     0.6792   0.4375   0.5214
V14     V     0.6792   0.9375   0.5214
V15     V     0.5708   0.4375   0.7286
V16     V     0.5708   0.9375   0.7286
V17     V     0.8208   0.3125   0.4785
V18     V     0.8208   0.8125   0.4785
V19     V     0.9292   0.3125   0.2715
V20     V     0.9292   0.8125   0.2715
V21     V     0.8208   0.0625   0.2715
V22     V     0.8208   0.5625   0.2715
V23     V     0.9292   0.0625   0.4785
V24     V     0.9292   0.5625   0.4785
V25     V     0.8208   0.3125   0.7714
V26     V     0.8208   0.8125   0.7714
V27     V     0.9292   0.3125   0.9786
V28     V     0.9292   0.8125   0.9786
V29     V     0.8208   0.0625   0.9786
V30     V     0.8208   0.5625   0.9786
V31     V     0.9292   0.0625   0.7714
V32     V     0.9292   0.5625   0.7714
V33     V     0.4292   0.0625   0.2715
V34     V     0.4292   0.5625   0.2715
V35     V     0.3208   0.0625   0.4785
V36     V     0.3208   0.5625   0.4785
V37     V     0.4292   0.3125   0.4785
V38     V     0.4292   0.8125   0.4785
V39     V     0.3208   0.3125   0.2715
V40     V     0.3208   0.8125   0.2715
V41     V     0.4292   0.3125   0.7714
V42     V     0.4292   0.8125   0.7714
V43     V     0.3208   0.3125   0.9786
V44     V     0.3208   0.8125   0.9786
V45     V     0.3208   0.0625   0.7714
V46     V     0.3208   0.5625   0.7714
V47     V     0.4292   0.0625   0.9786
V48     V     0.4292   0.5625   0.9786
V49     V     0.0708   0.1875   0.7286
V50     V     0.0708   0.6875   0.7286
V51     V     0.1792   0.1875   0.5214
V52     V     0.1792   0.6875   0.5214
V53     V     0.1792   0.4375   0.7286
V54     V     0.1792   0.9375   0.7286
V55     V     0.0708   0.4375   0.5214
V56     V     0.0708   0.9375   0.5214
V57     V     0.0708   0.1875   0.0214
V58     V     0.0708   0.6875   0.0214
V59     V     0.1792   0.1875   0.2286
V60     V     0.1792   0.6875   0.2286
V61     V     0.1792   0.4375   0.0214
V62     V     0.1792   0.9375   0.0214
V63     V     0.0708   0.4375   0.2286
V64     V     0.0708   0.9375   0.2286
loop_
_geom_bond_atom_site_label_1
_geom_bond_atom_site_label_2
_geom_bond_distance
_geom_bond_site_symmetry_2
_ccdc_geom_bond_type
V1     V3    10.0   .     S
V1     V7    10.0   .     S
V1     V5    10.0   .     S
V1     V6    10.0   1_545     S
V1     V8    10.0   1_545     S
V1     V9    10.0   1_554     S
V1     V29    10.0   1_554     S
V2     V4    10.0   .     S
V2     V8    10.0   .     S
V2     V6    10.0   .     S
V2     V5    10.0   .     S
V2     V7    10.0   .     S
V2     V10    10.0   1_554     S
V2     V30    10.0   1_554     S
V3     V5    10.0   .     S
V3     V7    10.0   .     S
V3     V6    10.0   1_545     S
V3     V8    10.0   1_545     S
V3     V11    10.0   .     S
V3     V33    10.0   .     S
V4     V6    10.0   .     S
V4     V8    10.0   .     S
V4     V5    10.0   .     S
V4     V7    10.0   .     S
V4     V12    10.0   .     S
V4     V34    10.0   .     S
V5     V7    10.0   .     S
V5     V13    10.0   .     S
V5     V22    10.0   .     S
V6     V1    10.0   1_565     S
V6     V3    10.0   1_565     S
V6     V8    10.0   .     S
V6     V14    10.0   .     S
V6     V21    10.0   1_565     S
V7     V15    10.0   1_554     S
V7     V48    10.0   1_554     S
V8     V1    10.0   1_565     S
V8     V3    10.0   1_565     S
V8     V16    10.0   1_554     S
V8     V47    10.0   1_564     S
V9     V13    10.0   .     S
V9     V15    10.0   .     S
V9     V11    10.0   .     S
V9     V16    10.0   1_545     S
V9     V14    10.0   1_545     S
V9     V1    10.0   1_556     S
V9     V25    10.0   .     S
V10     V14    10.0   .     S
V10     V16    10.0   .     S
V10     V12    10.0   .     S
V10     V15    10.0   .     S
V10     V13    10.0   .     S
V10     V2    10.0   1_556     S
V10     V26    10.0   .     S
V11     V13    10.0   .     S
V11     V15    10.0   .     S
V11     V14    10.0   1_545     S
V11     V16    10.0   1_545     S
V11     V37    10.0   .     S
V12     V14    10.0   .     S
V12     V16    10.0   .     S
V12     V13    10.0   .     S
V12     V15    10.0   .     S
V12     V38    10.0   .     S
V13     V15    10.0   .     S
V13     V17    10.0   .     S
V14     V9    10.0   1_565     S
V14     V11    10.0   1_565     S
V14     V16    10.0   .     S
V14     V18    10.0   .     S
V15     V7    10.0   1_556     S
V15     V41    10.0   .     S
V16     V9    10.0   1_565     S
V16     V11    10.0   1_565     S
V16     V8    10.0   1_556     S
V16     V42    10.0   .     S
V17     V19    10.0   .     S
V17     V23    10.0   .     S
V17     V21    10.0   .     S
V17     V22    10.0   .     S
V17     V24    10.0   .     S
V17     V25    10.0   .     S
V18     V20    10.0   .     S
V18     V24    10.0   .     S
V18     V22    10.0   .     S
V18     V21    10.0   1_565     S
V18     V23    10.0   1_565     S
V18     V26    10.0   .     S
V19     V21    10.0   .     S
V19     V23    10.0   .     S
V19     V22    10.0   .     S
V19     V24    10.0   .     S
V19     V27    10.0   1_554     S
V19     V63    10.0   1_655     S
V20     V22    10.0   .     S
V20     V24    10.0   .     S
V20     V21    10.0   1_565     S
V20     V23    10.0   1_565     S
V20     V28    10.0   1_554     S
V20     V64    10.0   1_655     S
V21     V23    10.0   .     S
V21     V18    10.0   1_545     S
V21     V20    10.0   1_545     S
V21     V29    10.0   1_554     S
V21     V6    10.0   1_545     S
V22     V24    10.0   .     S
V22     V30    10.0   1_554     S
V23     V18    10.0   1_545     S
V23     V20    10.0   1_545     S
V23     V31    10.0   .     S
V23     V56    10.0   1_645     S
V24     V32    10.0   .     S
V24     V55    10.0   1_655     S
V25     V29    10.0   .     S
V25     V31    10.0   .     S
V25     V27    10.0   .     S
V25     V32    10.0   .     S
V25     V30    10.0   .     S
V26     V30    10.0   .     S
V26     V32    10.0   .     S
V26     V28    10.0   .     S
V26     V31    10.0   1_565     S
V26     V29    10.0   1_565     S
V27     V29    10.0   .     S
V27     V31    10.0   .     S
V27     V30    10.0   .     S
V27     V32    10.0   .     S
V27     V19    10.0   1_556     S
V27     V57    10.0   1_656     S
V28     V30    10.0   .     S
V28     V32    10.0   .     S
V28     V29    10.0   1_565     S
V28     V31    10.0   1_565     S
V28     V20    10.0   1_556     S
V28     V58    10.0   1_656     S
V29     V31    10.0   .     S
V29     V26    10.0   1_545     S
V29     V28    10.0   1_545     S
V29     V21    10.0   1_556     S
V29     V1    10.0   1_556     S
V30     V32    10.0   .     S
V30     V22    10.0   1_556     S
V30     V2    10.0   1_556     S
V31     V26    10.0   1_545     S
V31     V28    10.0   1_545     S
V31     V49    10.0   1_655     S
V32     V50    10.0   1_655     S
V33     V35    10.0   .     S
V33     V38    10.0   1_545     S
V33     V40    10.0   1_545     S
V33     V37    10.0   .     S
V33     V39    10.0   .     S
V33     V47    10.0   1_554     S
V34     V36    10.0   .     S
V34     V37    10.0   .     S
V34     V39    10.0   .     S
V34     V38    10.0   .     S
V34     V40    10.0   .     S
V34     V48    10.0   1_554     S
V35     V38    10.0   1_545     S
V35     V40    10.0   1_545     S
V35     V37    10.0   .     S
V35     V39    10.0   .     S
V35     V45    10.0   .     S
V35     V51    10.0   .     S
V36     V37    10.0   .     S
V36     V39    10.0   .     S
V36     V38    10.0   .     S
V36     V40    10.0   .     S
V36     V46    10.0   .     S
V36     V52    10.0   .     S
V37     V39    10.0   .     S
V37     V41    10.0   .     S
V38     V35    10.0   1_565     S
V38     V33    10.0   1_565     S
V38     V40    10.0   .     S
V38     V42    10.0   .     S
V39     V43    10.0   1_554     S
V39     V59    10.0   .     S
V40     V33    10.0   1_565     S
V40     V35    10.0   1_565     S
V40     V44    10.0   1_554     S
V40     V60    10.0   .     S
V41     V43    10.0   .     S
V41     V45    10.0   .     S
V41     V47    10.0   .     S
V41     V48    10.0   .     S
V41     V46    10.0   .     S
V42     V44    10.0   .     S
V42     V46    10.0   .     S
V42     V48    10.0   .     S
V42     V47    10.0   1_565     S
V42     V45    10.0   1_565     S
V43     V45    10.0   .     S
V43     V47    10.0   .     S
V43     V46    10.0   .     S
V43     V48    10.0   .     S
V43     V39    10.0   1_556     S
V43     V61    10.0   1_556     S
V44     V46    10.0   .     S
V44     V48    10.0   .     S
V44     V45    10.0   1_565     S
V44     V47    10.0   1_565     S
V44     V40    10.0   1_556     S
V44     V62    10.0   1_556     S
V45     V47    10.0   .     S
V45     V42    10.0   1_545     S
V45     V44    10.0   1_545     S
V45     V54    10.0   1_545     S
V46     V48    10.0   .     S
V46     V53    10.0   .     S
V47     V42    10.0   1_545     S
V47     V44    10.0   1_545     S
V47     V33    10.0   1_556     S
V47     V8    10.0   1_546     S
V48     V34    10.0   1_556     S
V48     V7    10.0   1_556     S
V49     V51    10.0   .     S
V49     V53    10.0   .     S
V49     V55    10.0   .     S
V49     V56    10.0   1_545     S
V49     V54    10.0   1_545     S
V49     V57    10.0   1_556     S
V49     V31    10.0   1_455     S
V50     V52    10.0   .     S
V50     V54    10.0   .     S
V50     V56    10.0   .     S
V50     V55    10.0   .     S
V50     V53    10.0   .     S
V50     V58    10.0   1_556     S
V50     V32    10.0   1_455     S
V51     V53    10.0   .     S
V51     V55    10.0   .     S
V51     V54    10.0   1_545     S
V51     V56    10.0   1_545     S
V51     V59    10.0   .     S
V52     V54    10.0   .     S
V52     V56    10.0   .     S
V52     V53    10.0   .     S
V52     V55    10.0   .     S
V52     V60    10.0   .     S
V53     V55    10.0   .     S
V53     V61    10.0   1_556     S
V54     V45    10.0   1_565     S
V54     V56    10.0   .     S
V54     V49    10.0   1_565     S
V54     V51    10.0   1_565     S
V54     V62    10.0   1_556     S
V55     V63    10.0   .     S
V55     V24    10.0   1_455     S
V56     V49    10.0   1_565     S
V56     V51    10.0   1_565     S
V56     V64    10.0   .     S
V56     V23    10.0   1_465     S
V57     V59    10.0   .     S
V57     V63    10.0   .     S
V57     V61    10.0   .     S
V57     V62    10.0   1_545     S
V57     V64    10.0   1_545     S
V57     V49    10.0   1_554     S
V57     V27    10.0   1_454     S
V58     V60    10.0   .     S
V58     V64    10.0   .     S
V58     V62    10.0   .     S
V58     V61    10.0   .     S
V58     V63    10.0   .     S
V58     V50    10.0   1_554     S
V58     V28    10.0   1_454     S
V59     V61    10.0   .     S
V59     V63    10.0   .     S
V59     V64    10.0   1_545     S
V59     V62    10.0   1_545     S
V60     V62    10.0   .     S
V60     V64    10.0   .     S
V60     V63    10.0   .     S
V60     V61    10.0   .     S
V61     V43    10.0   1_554     S
V61     V63    10.0   .     S
V61     V53    10.0   1_554     S
V62     V44    10.0   1_554     S
V62     V64    10.0   .     S
V62     V57    10.0   1_565     S
V62     V59    10.0   1_565     S
V62     V54    10.0   1_554     S
V63     V19    10.0   1_455     S
V64     V57    10.0   1_565     S
V64     V59    10.0   1_565     S
V64     V20    10.0   1_455     S
