data_sos
_audit_creation_date              2019-12-31
_audit_creation_method            'Pymatgen'
_symmetry_space_group_name_H-M    'P1'
_symmetry_Int_Tables_number       1
loop_
_symmetry_equiv_pos_as_xyz
  x,y,z
_cell_length_a                    34.6962
_cell_length_b                    30.0
_cell_length_c                    39.769
_cell_angle_alpha                 90.0
_cell_angle_beta                 90.0
_cell_angle_gamma                 90.0
loop_
_atom_site_label
_atom_site_type_symbol
_atom_site_fract_x
_atom_site_fract_y
_atom_site_fract_z
V1     V     0.1067   0.2679   0.4314
V2     V     0.1067   0.2679   0.9314
V3     V     0.1067   0.6012   0.4314
V4     V     0.1067   0.6012   0.9314
V5     V     0.1067   0.9346   0.4314
V6     V     0.1067   0.9346   0.9314
V7     V     0.8933   0.0654   0.0686
V8     V     0.8933   0.0654   0.5686
V9     V     0.8933   0.3988   0.0686
V10     V     0.8933   0.3988   0.5686
V11     V     0.8933   0.7321   0.0686
V12     V     0.8933   0.7321   0.5686
V13     V     0.1067   0.2321   0.1814
V14     V     0.1067   0.2321   0.6814
V15     V     0.1067   0.5654   0.1814
V16     V     0.1067   0.5654   0.6814
V17     V     0.1067   0.8988   0.1814
V18     V     0.1067   0.8988   0.6814
V19     V     0.8933   0.1012   0.3186
V20     V     0.8933   0.1012   0.8186
V21     V     0.8933   0.4346   0.3186
V22     V     0.8933   0.4346   0.8186
V23     V     0.8933   0.7679   0.3186
V24     V     0.8933   0.7679   0.8186
V25     V     0.3933   0.2679   0.1814
V26     V     0.3933   0.2679   0.6814
V27     V     0.3933   0.6012   0.1814
V28     V     0.3933   0.6012   0.6814
V29     V     0.3933   0.9346   0.1814
V30     V     0.3933   0.9346   0.6814
V31     V     0.6067   0.0654   0.3186
V32     V     0.6067   0.0654   0.8186
V33     V     0.6067   0.3988   0.3186
V34     V     0.6067   0.3988   0.8186
V35     V     0.6067   0.7321   0.3186
V36     V     0.6067   0.7321   0.8186
V37     V     0.6067   0.1012   0.0686
V38     V     0.6067   0.1012   0.5686
V39     V     0.6067   0.4346   0.0686
V40     V     0.6067   0.4346   0.5686
V41     V     0.6067   0.7679   0.0686
V42     V     0.6067   0.7679   0.5686
V43     V     0.3933   0.2321   0.4314
V44     V     0.3933   0.2321   0.9314
V45     V     0.3933   0.5654   0.4314
V46     V     0.3933   0.5654   0.9314
V47     V     0.3933   0.8988   0.4314
V48     V     0.3933   0.8988   0.9314
loop_
_geom_bond_atom_site_label_1
_geom_bond_atom_site_label_2
_geom_bond_distance
_geom_bond_site_symmetry_2
_ccdc_geom_bond_type
V1     V10    10.0   1_455     S
V1     V21    10.0   1_455     S
V1     V14    10.0   .     S
V1     V19    10.0   1_455     S
V1     V13    10.0   .     S
V1     V5    10.0   1_545     S
V1     V3    10.0   .     S
V1     V43    10.0   .     S
V2     V9    10.0   1_456     S
V2     V22    10.0   1_455     S
V2     V13    10.0   1_556     S
V2     V20    10.0   1_455     S
V2     V14    10.0   .     S
V2     V6    10.0   1_545     S
V2     V4    10.0   .     S
V2     V44    10.0   .     S
V3     V12    10.0   1_455     S
V3     V23    10.0   1_455     S
V3     V16    10.0   .     S
V3     V21    10.0   1_455     S
V3     V15    10.0   .     S
V3     V5    10.0   .     S
V3     V45    10.0   .     S
V4     V11    10.0   1_456     S
V4     V24    10.0   1_455     S
V4     V15    10.0   1_556     S
V4     V22    10.0   1_455     S
V4     V16    10.0   .     S
V4     V6    10.0   .     S
V4     V46    10.0   .     S
V5     V8    10.0   1_465     S
V5     V19    10.0   1_465     S
V5     V18    10.0   .     S
V5     V23    10.0   1_455     S
V5     V17    10.0   .     S
V5     V1    10.0   1_565     S
V5     V47    10.0   .     S
V6     V7    10.0   1_466     S
V6     V20    10.0   1_465     S
V6     V17    10.0   1_556     S
V6     V24    10.0   1_455     S
V6     V18    10.0   .     S
V6     V2    10.0   1_565     S
V6     V48    10.0   .     S
V7     V6    10.0   1_644     S
V7     V20    10.0   1_554     S
V7     V17    10.0   1_645     S
V7     V13    10.0   1_655     S
V7     V19    10.0   .     S
V7     V9    10.0   .     S
V7     V11    10.0   1_545     S
V7     V37    10.0   .     S
V8     V5    10.0   1_645     S
V8     V19    10.0   .     S
V8     V18    10.0   1_645     S
V8     V14    10.0   1_655     S
V8     V20    10.0   .     S
V8     V10    10.0   .     S
V8     V12    10.0   1_545     S
V8     V38    10.0   .     S
V9     V2    10.0   1_654     S
V9     V22    10.0   1_554     S
V9     V13    10.0   1_655     S
V9     V15    10.0   1_655     S
V9     V21    10.0   .     S
V9     V11    10.0   .     S
V9     V39    10.0   .     S
V10     V1    10.0   1_655     S
V10     V21    10.0   .     S
V10     V14    10.0   1_655     S
V10     V16    10.0   1_655     S
V10     V22    10.0   .     S
V10     V12    10.0   .     S
V10     V40    10.0   .     S
V11     V4    10.0   1_654     S
V11     V24    10.0   1_554     S
V11     V15    10.0   1_655     S
V11     V17    10.0   1_655     S
V11     V23    10.0   .     S
V11     V7    10.0   1_565     S
V11     V41    10.0   .     S
V12     V3    10.0   1_655     S
V12     V23    10.0   .     S
V12     V16    10.0   1_655     S
V12     V18    10.0   1_655     S
V12     V24    10.0   .     S
V12     V8    10.0   1_565     S
V12     V42    10.0   .     S
V13     V9    10.0   1_455     S
V13     V2    10.0   1_554     S
V13     V7    10.0   1_455     S
V13     V19    10.0   1_455     S
V13     V17    10.0   1_545     S
V13     V15    10.0   .     S
V13     V25    10.0   .     S
V14     V10    10.0   1_455     S
V14     V8    10.0   1_455     S
V14     V20    10.0   1_455     S
V14     V18    10.0   1_545     S
V14     V16    10.0   .     S
V14     V26    10.0   .     S
V15     V11    10.0   1_455     S
V15     V4    10.0   1_554     S
V15     V9    10.0   1_455     S
V15     V21    10.0   1_455     S
V15     V17    10.0   .     S
V15     V27    10.0   .     S
V16     V12    10.0   1_455     S
V16     V10    10.0   1_455     S
V16     V22    10.0   1_455     S
V16     V18    10.0   .     S
V16     V28    10.0   .     S
V17     V7    10.0   1_465     S
V17     V6    10.0   1_554     S
V17     V11    10.0   1_455     S
V17     V23    10.0   1_455     S
V17     V13    10.0   1_565     S
V17     V29    10.0   .     S
V18     V8    10.0   1_465     S
V18     V12    10.0   1_455     S
V18     V24    10.0   1_455     S
V18     V14    10.0   1_565     S
V18     V30    10.0   .     S
V19     V5    10.0   1_645     S
V19     V1    10.0   1_655     S
V19     V13    10.0   1_655     S
V19     V21    10.0   .     S
V19     V23    10.0   1_545     S
V19     V31    10.0   .     S
V20     V6    10.0   1_645     S
V20     V7    10.0   1_556     S
V20     V2    10.0   1_655     S
V20     V14    10.0   1_655     S
V20     V22    10.0   .     S
V20     V24    10.0   1_545     S
V20     V32    10.0   .     S
V21     V1    10.0   1_655     S
V21     V3    10.0   1_655     S
V21     V15    10.0   1_655     S
V21     V23    10.0   .     S
V21     V33    10.0   .     S
V22     V2    10.0   1_655     S
V22     V9    10.0   1_556     S
V22     V4    10.0   1_655     S
V22     V16    10.0   1_655     S
V22     V24    10.0   .     S
V22     V34    10.0   .     S
V23     V3    10.0   1_655     S
V23     V5    10.0   1_655     S
V23     V17    10.0   1_655     S
V23     V19    10.0   1_565     S
V23     V35    10.0   .     S
V24     V4    10.0   1_655     S
V24     V11    10.0   1_556     S
V24     V6    10.0   1_655     S
V24     V18    10.0   1_655     S
V24     V20    10.0   1_565     S
V24     V36    10.0   .     S
V25     V37    10.0   .     S
V25     V44    10.0   1_554     S
V25     V43    10.0   .     S
V25     V33    10.0   .     S
V25     V39    10.0   .     S
V25     V29    10.0   1_545     S
V25     V27    10.0   .     S
V26     V38    10.0   .     S
V26     V43    10.0   .     S
V26     V44    10.0   .     S
V26     V34    10.0   .     S
V26     V40    10.0   .     S
V26     V30    10.0   1_545     S
V26     V28    10.0   .     S
V27     V39    10.0   .     S
V27     V46    10.0   1_554     S
V27     V45    10.0   .     S
V27     V35    10.0   .     S
V27     V41    10.0   .     S
V27     V29    10.0   .     S
V28     V40    10.0   .     S
V28     V45    10.0   .     S
V28     V46    10.0   .     S
V28     V36    10.0   .     S
V28     V42    10.0   .     S
V28     V30    10.0   .     S
V29     V41    10.0   .     S
V29     V48    10.0   1_554     S
V29     V47    10.0   .     S
V29     V31    10.0   1_565     S
V29     V37    10.0   1_565     S
V29     V25    10.0   1_565     S
V30     V42    10.0   .     S
V30     V47    10.0   .     S
V30     V48    10.0   .     S
V30     V32    10.0   1_565     S
V30     V38    10.0   1_565     S
V30     V26    10.0   1_565     S
V31     V43    10.0   .     S
V31     V38    10.0   .     S
V31     V47    10.0   1_545     S
V31     V29    10.0   1_545     S
V31     V33    10.0   .     S
V31     V35    10.0   1_545     S
V31     V37    10.0   .     S
V32     V44    10.0   .     S
V32     V37    10.0   1_556     S
V32     V48    10.0   1_545     S
V32     V30    10.0   1_545     S
V32     V34    10.0   .     S
V32     V36    10.0   1_545     S
V32     V38    10.0   .     S
V33     V45    10.0   .     S
V33     V40    10.0   .     S
V33     V43    10.0   .     S
V33     V35    10.0   .     S
V33     V39    10.0   .     S
V34     V46    10.0   .     S
V34     V39    10.0   1_556     S
V34     V44    10.0   .     S
V34     V36    10.0   .     S
V34     V40    10.0   .     S
V35     V47    10.0   .     S
V35     V42    10.0   .     S
V35     V45    10.0   .     S
V35     V31    10.0   1_565     S
V35     V41    10.0   .     S
V36     V48    10.0   .     S
V36     V41    10.0   1_556     S
V36     V46    10.0   .     S
V36     V32    10.0   1_565     S
V36     V42    10.0   .     S
V37     V32    10.0   1_554     S
V37     V29    10.0   1_545     S
V37     V44    10.0   1_554     S
V37     V39    10.0   .     S
V37     V41    10.0   1_545     S
V38     V30    10.0   1_545     S
V38     V43    10.0   .     S
V38     V40    10.0   .     S
V38     V42    10.0   1_545     S
V39     V34    10.0   1_554     S
V39     V46    10.0   1_554     S
V39     V41    10.0   .     S
V40     V45    10.0   .     S
V40     V42    10.0   .     S
V41     V36    10.0   1_554     S
V41     V48    10.0   1_554     S
V41     V37    10.0   1_565     S
V42     V47    10.0   .     S
V42     V38    10.0   1_565     S
V43     V47    10.0   1_545     S
V43     V45    10.0   .     S
V44     V25    10.0   1_556     S
V44     V37    10.0   1_556     S
V44     V48    10.0   1_545     S
V44     V46    10.0   .     S
V45     V47    10.0   .     S
V46     V27    10.0   1_556     S
V46     V39    10.0   1_556     S
V46     V48    10.0   .     S
V47     V31    10.0   1_565     S
V47     V43    10.0   1_565     S
V48     V29    10.0   1_556     S
V48     V32    10.0   1_565     S
V48     V41    10.0   1_556     S
V48     V44    10.0   1_565     S
