data_sot
_audit_creation_date              2019-12-31
_audit_creation_method            'Pymatgen'
_symmetry_space_group_name_H-M    'P1'
_symmetry_Int_Tables_number       1
loop_
_symmetry_equiv_pos_as_xyz
  x,y,z
_cell_length_a                    73.2782
_cell_length_b                    37.3207
_cell_length_c                    30.0
_cell_angle_alpha                 90.0
_cell_angle_beta                 90.0
_cell_angle_gamma                 90.0
loop_
_atom_site_label
_atom_site_type_symbol
_atom_site_fract_x
_atom_site_fract_y
_atom_site_fract_z
V1     V     0.3159   0.491   0.2083
V2     V     0.3159   0.491   0.5417
V3     V     0.3159   0.491   0.875
V4     V     0.3159   0.259   0.0417
V5     V     0.3159   0.259   0.375
V6     V     0.3159   0.259   0.7083
V7     V     0.4341   0.491   0.0417
V8     V     0.4341   0.491   0.375
V9     V     0.4341   0.491   0.7083
V10     V     0.4341   0.259   0.2083
V11     V     0.4341   0.259   0.5417
V12     V     0.4341   0.259   0.875
V13     V     0.4341   0.991   0.2083
V14     V     0.4341   0.991   0.5417
V15     V     0.4341   0.991   0.875
V16     V     0.4341   0.759   0.0417
V17     V     0.4341   0.759   0.375
V18     V     0.4341   0.759   0.7083
V19     V     0.3159   0.991   0.0417
V20     V     0.3159   0.991   0.375
V21     V     0.3159   0.991   0.7083
V22     V     0.3159   0.759   0.2083
V23     V     0.3159   0.759   0.5417
V24     V     0.3159   0.759   0.875
V25     V     0.0659   0.509   0.125
V26     V     0.0659   0.509   0.4583
V27     V     0.0659   0.509   0.7917
V28     V     0.0659   0.741   0.2917
V29     V     0.0659   0.741   0.625
V30     V     0.0659   0.741   0.9583
V31     V     0.1841   0.509   0.2917
V32     V     0.1841   0.509   0.625
V33     V     0.1841   0.509   0.9583
V34     V     0.1841   0.741   0.125
V35     V     0.1841   0.741   0.4583
V36     V     0.1841   0.741   0.7917
V37     V     0.0659   0.241   0.125
V38     V     0.0659   0.241   0.4583
V39     V     0.0659   0.241   0.7917
V40     V     0.0659   0.009   0.2917
V41     V     0.0659   0.009   0.625
V42     V     0.0659   0.009   0.9583
V43     V     0.1841   0.009   0.125
V44     V     0.1841   0.009   0.4583
V45     V     0.1841   0.009   0.7917
V46     V     0.1841   0.241   0.2917
V47     V     0.1841   0.241   0.625
V48     V     0.1841   0.241   0.9583
V49     V     0.6841   0.009   0.2917
V50     V     0.6841   0.009   0.625
V51     V     0.6841   0.009   0.9583
V52     V     0.6841   0.241   0.125
V53     V     0.6841   0.241   0.4583
V54     V     0.6841   0.241   0.7917
V55     V     0.5659   0.009   0.125
V56     V     0.5659   0.009   0.4583
V57     V     0.5659   0.009   0.7917
V58     V     0.5659   0.241   0.2917
V59     V     0.5659   0.241   0.625
V60     V     0.5659   0.241   0.9583
V61     V     0.8159   0.991   0.2083
V62     V     0.8159   0.991   0.5417
V63     V     0.8159   0.991   0.875
V64     V     0.8159   0.759   0.0417
V65     V     0.8159   0.759   0.375
V66     V     0.8159   0.759   0.7083
V67     V     0.9341   0.991   0.0417
V68     V     0.9341   0.991   0.375
V69     V     0.9341   0.991   0.7083
V70     V     0.9341   0.759   0.2083
V71     V     0.9341   0.759   0.5417
V72     V     0.9341   0.759   0.875
V73     V     0.6841   0.509   0.125
V74     V     0.6841   0.509   0.4583
V75     V     0.6841   0.509   0.7917
V76     V     0.6841   0.741   0.2917
V77     V     0.6841   0.741   0.625
V78     V     0.6841   0.741   0.9583
V79     V     0.5659   0.509   0.2917
V80     V     0.5659   0.509   0.625
V81     V     0.5659   0.509   0.9583
V82     V     0.5659   0.741   0.125
V83     V     0.5659   0.741   0.4583
V84     V     0.5659   0.741   0.7917
V85     V     0.8159   0.491   0.0417
V86     V     0.8159   0.491   0.375
V87     V     0.8159   0.491   0.7083
V88     V     0.8159   0.259   0.2083
V89     V     0.8159   0.259   0.5417
V90     V     0.8159   0.259   0.875
V91     V     0.9341   0.259   0.0417
V92     V     0.9341   0.259   0.375
V93     V     0.9341   0.259   0.7083
V94     V     0.9341   0.491   0.2083
V95     V     0.9341   0.491   0.5417
V96     V     0.9341   0.491   0.875
loop_
_geom_bond_atom_site_label_1
_geom_bond_atom_site_label_2
_geom_bond_distance
_geom_bond_site_symmetry_2
_ccdc_geom_bond_type
V1     V5    10.0   .     S
V1     V8    10.0   .     S
V1     V4    10.0   .     S
V1     V3    10.0   1_554     S
V1     V2    10.0   .     S
V1     V7    10.0   .     S
V1     V31    10.0   .     S
V1     V22    10.0   .     S
V2     V6    10.0   .     S
V2     V9    10.0   .     S
V2     V5    10.0   .     S
V2     V3    10.0   .     S
V2     V8    10.0   .     S
V2     V32    10.0   .     S
V2     V23    10.0   .     S
V3     V4    10.0   1_556     S
V3     V7    10.0   1_556     S
V3     V6    10.0   .     S
V3     V1    10.0   1_556     S
V3     V9    10.0   .     S
V3     V33    10.0   .     S
V3     V24    10.0   .     S
V4     V3    10.0   1_554     S
V4     V12    10.0   1_554     S
V4     V5    10.0   .     S
V4     V6    10.0   1_554     S
V4     V10    10.0   .     S
V4     V48    10.0   1_554     S
V4     V19    10.0   1_545     S
V5     V10    10.0   .     S
V5     V6    10.0   .     S
V5     V11    10.0   .     S
V5     V46    10.0   .     S
V5     V20    10.0   1_545     S
V6     V11    10.0   .     S
V6     V4    10.0   1_556     S
V6     V12    10.0   .     S
V6     V47    10.0   .     S
V6     V21    10.0   1_545     S
V7     V3    10.0   1_554     S
V7     V12    10.0   1_554     S
V7     V10    10.0   .     S
V7     V8    10.0   .     S
V7     V9    10.0   1_554     S
V7     V81    10.0   1_554     S
V7     V16    10.0   .     S
V8     V10    10.0   .     S
V8     V11    10.0   .     S
V8     V9    10.0   .     S
V8     V79    10.0   .     S
V8     V17    10.0   .     S
V9     V11    10.0   .     S
V9     V12    10.0   .     S
V9     V7    10.0   1_556     S
V9     V80    10.0   .     S
V9     V18    10.0   .     S
V10     V12    10.0   1_554     S
V10     V11    10.0   .     S
V10     V58    10.0   .     S
V10     V13    10.0   1_545     S
V11     V12    10.0   .     S
V11     V59    10.0   .     S
V11     V14    10.0   1_545     S
V12     V7    10.0   1_556     S
V12     V4    10.0   1_556     S
V12     V10    10.0   1_556     S
V12     V60    10.0   .     S
V12     V15    10.0   1_545     S
V13     V16    10.0   .     S
V13     V19    10.0   .     S
V13     V17    10.0   .     S
V13     V15    10.0   1_554     S
V13     V14    10.0   .     S
V13     V20    10.0   .     S
V13     V55    10.0   1_565     S
V13     V10    10.0   1_565     S
V14     V17    10.0   .     S
V14     V20    10.0   .     S
V14     V18    10.0   .     S
V14     V15    10.0   .     S
V14     V21    10.0   .     S
V14     V56    10.0   1_565     S
V14     V11    10.0   1_565     S
V15     V18    10.0   .     S
V15     V21    10.0   .     S
V15     V16    10.0   1_556     S
V15     V13    10.0   1_556     S
V15     V19    10.0   1_556     S
V15     V57    10.0   1_565     S
V15     V12    10.0   1_565     S
V16     V22    10.0   .     S
V16     V15    10.0   1_554     S
V16     V17    10.0   .     S
V16     V18    10.0   1_554     S
V16     V24    10.0   1_554     S
V16     V82    10.0   .     S
V17     V23    10.0   .     S
V17     V18    10.0   .     S
V17     V22    10.0   .     S
V17     V83    10.0   .     S
V18     V24    10.0   .     S
V18     V16    10.0   1_556     S
V18     V23    10.0   .     S
V18     V84    10.0   .     S
V19     V22    10.0   .     S
V19     V24    10.0   1_554     S
V19     V20    10.0   .     S
V19     V21    10.0   1_554     S
V19     V15    10.0   1_554     S
V19     V43    10.0   1_565     S
V19     V4    10.0   1_565     S
V20     V23    10.0   .     S
V20     V22    10.0   .     S
V20     V21    10.0   .     S
V20     V44    10.0   1_565     S
V20     V5    10.0   1_565     S
V21     V24    10.0   .     S
V21     V23    10.0   .     S
V21     V19    10.0   1_556     S
V21     V45    10.0   1_565     S
V21     V6    10.0   1_565     S
V22     V24    10.0   1_554     S
V22     V23    10.0   .     S
V22     V34    10.0   .     S
V23     V24    10.0   .     S
V23     V35    10.0   .     S
V24     V19    10.0   1_556     S
V24     V22    10.0   1_556     S
V24     V16    10.0   1_556     S
V24     V36    10.0   .     S
V25     V28    10.0   .     S
V25     V31    10.0   .     S
V25     V30    10.0   1_554     S
V25     V26    10.0   .     S
V25     V27    10.0   1_554     S
V25     V33    10.0   1_554     S
V25     V94    10.0   1_455     S
V25     V37    10.0   .     S
V26     V29    10.0   .     S
V26     V32    10.0   .     S
V26     V28    10.0   .     S
V26     V27    10.0   .     S
V26     V31    10.0   .     S
V26     V95    10.0   1_455     S
V26     V38    10.0   .     S
V27     V30    10.0   .     S
V27     V33    10.0   .     S
V27     V29    10.0   .     S
V27     V25    10.0   1_556     S
V27     V32    10.0   .     S
V27     V96    10.0   1_455     S
V27     V39    10.0   .     S
V28     V34    10.0   .     S
V28     V30    10.0   1_554     S
V28     V29    10.0   .     S
V28     V35    10.0   .     S
V28     V70    10.0   1_455     S
V28     V40    10.0   1_565     S
V29     V35    10.0   .     S
V29     V30    10.0   .     S
V29     V36    10.0   .     S
V29     V71    10.0   1_455     S
V29     V41    10.0   1_565     S
V30     V36    10.0   .     S
V30     V25    10.0   1_556     S
V30     V28    10.0   1_556     S
V30     V34    10.0   1_556     S
V30     V72    10.0   1_455     S
V30     V42    10.0   1_565     S
V31     V34    10.0   .     S
V31     V35    10.0   .     S
V31     V33    10.0   1_554     S
V31     V32    10.0   .     S
V31     V46    10.0   .     S
V32     V35    10.0   .     S
V32     V36    10.0   .     S
V32     V33    10.0   .     S
V32     V47    10.0   .     S
V33     V36    10.0   .     S
V33     V34    10.0   1_556     S
V33     V31    10.0   1_556     S
V33     V25    10.0   1_556     S
V33     V48    10.0   .     S
V34     V33    10.0   1_554     S
V34     V35    10.0   .     S
V34     V36    10.0   1_554     S
V34     V30    10.0   1_554     S
V34     V43    10.0   1_565     S
V35     V36    10.0   .     S
V35     V44    10.0   1_565     S
V36     V34    10.0   1_556     S
V36     V45    10.0   1_565     S
V37     V42    10.0   1_554     S
V37     V48    10.0   1_554     S
V37     V40    10.0   .     S
V37     V38    10.0   .     S
V37     V39    10.0   1_554     S
V37     V46    10.0   .     S
V37     V91    10.0   1_455     S
V38     V40    10.0   .     S
V38     V46    10.0   .     S
V38     V41    10.0   .     S
V38     V39    10.0   .     S
V38     V47    10.0   .     S
V38     V92    10.0   1_455     S
V39     V41    10.0   .     S
V39     V47    10.0   .     S
V39     V42    10.0   .     S
V39     V37    10.0   1_556     S
V39     V48    10.0   .     S
V39     V93    10.0   1_455     S
V40     V44    10.0   .     S
V40     V42    10.0   1_554     S
V40     V41    10.0   .     S
V40     V43    10.0   .     S
V40     V68    10.0   1_445     S
V40     V28    10.0   1_545     S
V41     V45    10.0   .     S
V41     V42    10.0   .     S
V41     V44    10.0   .     S
V41     V69    10.0   1_445     S
V41     V29    10.0   1_545     S
V42     V37    10.0   1_556     S
V42     V43    10.0   1_556     S
V42     V40    10.0   1_556     S
V42     V45    10.0   .     S
V42     V67    10.0   1_446     S
V42     V30    10.0   1_545     S
V43     V48    10.0   1_554     S
V43     V42    10.0   1_554     S
V43     V46    10.0   .     S
V43     V44    10.0   .     S
V43     V45    10.0   1_554     S
V43     V19    10.0   1_545     S
V43     V34    10.0   1_545     S
V44     V46    10.0   .     S
V44     V47    10.0   .     S
V44     V45    10.0   .     S
V44     V20    10.0   1_545     S
V44     V35    10.0   1_545     S
V45     V47    10.0   .     S
V45     V48    10.0   .     S
V45     V43    10.0   1_556     S
V45     V21    10.0   1_545     S
V45     V36    10.0   1_545     S
V46     V48    10.0   1_554     S
V46     V47    10.0   .     S
V47     V48    10.0   .     S
V48     V43    10.0   1_556     S
V48     V37    10.0   1_556     S
V48     V46    10.0   1_556     S
V48     V4    10.0   1_556     S
V49     V52    10.0   .     S
V49     V55    10.0   .     S
V49     V53    10.0   .     S
V49     V51    10.0   1_554     S
V49     V50    10.0   .     S
V49     V56    10.0   .     S
V49     V61    10.0   1_545     S
V49     V76    10.0   1_545     S
V50     V53    10.0   .     S
V50     V56    10.0   .     S
V50     V54    10.0   .     S
V50     V51    10.0   .     S
V50     V57    10.0   .     S
V50     V62    10.0   1_545     S
V50     V77    10.0   1_545     S
V51     V54    10.0   .     S
V51     V57    10.0   .     S
V51     V52    10.0   1_556     S
V51     V49    10.0   1_556     S
V51     V55    10.0   1_556     S
V51     V63    10.0   1_545     S
V51     V78    10.0   1_545     S
V52     V58    10.0   .     S
V52     V51    10.0   1_554     S
V52     V53    10.0   .     S
V52     V54    10.0   1_554     S
V52     V60    10.0   1_554     S
V52     V88    10.0   .     S
V52     V73    10.0   .     S
V53     V59    10.0   .     S
V53     V54    10.0   .     S
V53     V58    10.0   .     S
V53     V89    10.0   .     S
V53     V74    10.0   .     S
V54     V60    10.0   .     S
V54     V52    10.0   1_556     S
V54     V59    10.0   .     S
V54     V90    10.0   .     S
V54     V75    10.0   .     S
V55     V58    10.0   .     S
V55     V60    10.0   1_554     S
V55     V56    10.0   .     S
V55     V57    10.0   1_554     S
V55     V51    10.0   1_554     S
V55     V13    10.0   1_545     S
V55     V82    10.0   1_545     S
V56     V59    10.0   .     S
V56     V58    10.0   .     S
V56     V57    10.0   .     S
V56     V14    10.0   1_545     S
V56     V83    10.0   1_545     S
V57     V60    10.0   .     S
V57     V59    10.0   .     S
V57     V55    10.0   1_556     S
V57     V15    10.0   1_545     S
V57     V84    10.0   1_545     S
V58     V60    10.0   1_554     S
V58     V59    10.0   .     S
V58     V79    10.0   .     S
V59     V60    10.0   .     S
V59     V80    10.0   .     S
V60     V55    10.0   1_556     S
V60     V58    10.0   1_556     S
V60     V52    10.0   1_556     S
V60     V81    10.0   .     S
V61     V65    10.0   .     S
V61     V68    10.0   .     S
V61     V64    10.0   .     S
V61     V63    10.0   1_554     S
V61     V62    10.0   .     S
V61     V67    10.0   .     S
V61     V49    10.0   1_565     S
V61     V88    10.0   1_565     S
V62     V66    10.0   .     S
V62     V69    10.0   .     S
V62     V65    10.0   .     S
V62     V63    10.0   .     S
V62     V68    10.0   .     S
V62     V50    10.0   1_565     S
V62     V89    10.0   1_565     S
V63     V64    10.0   1_556     S
V63     V67    10.0   1_556     S
V63     V66    10.0   .     S
V63     V61    10.0   1_556     S
V63     V69    10.0   .     S
V63     V51    10.0   1_565     S
V63     V90    10.0   1_565     S
V64     V63    10.0   1_554     S
V64     V72    10.0   1_554     S
V64     V65    10.0   .     S
V64     V66    10.0   1_554     S
V64     V70    10.0   .     S
V64     V78    10.0   1_554     S
V64     V85    10.0   .     S
V65     V70    10.0   .     S
V65     V66    10.0   .     S
V65     V71    10.0   .     S
V65     V76    10.0   .     S
V65     V86    10.0   .     S
V66     V71    10.0   .     S
V66     V64    10.0   1_556     S
V66     V72    10.0   .     S
V66     V77    10.0   .     S
V66     V87    10.0   .     S
V67     V72    10.0   1_554     S
V67     V63    10.0   1_554     S
V67     V70    10.0   .     S
V67     V68    10.0   .     S
V67     V69    10.0   1_554     S
V67     V42    10.0   1_664     S
V67     V91    10.0   1_565     S
V68     V70    10.0   .     S
V68     V71    10.0   .     S
V68     V69    10.0   .     S
V68     V40    10.0   1_665     S
V68     V92    10.0   1_565     S
V69     V71    10.0   .     S
V69     V72    10.0   .     S
V69     V67    10.0   1_556     S
V69     V41    10.0   1_665     S
V69     V93    10.0   1_565     S
V70     V72    10.0   1_554     S
V70     V71    10.0   .     S
V70     V28    10.0   1_655     S
V70     V94    10.0   .     S
V71     V72    10.0   .     S
V71     V29    10.0   1_655     S
V71     V95    10.0   .     S
V72     V67    10.0   1_556     S
V72     V64    10.0   1_556     S
V72     V70    10.0   1_556     S
V72     V30    10.0   1_655     S
V72     V96    10.0   .     S
V73     V78    10.0   1_554     S
V73     V81    10.0   1_554     S
V73     V76    10.0   .     S
V73     V74    10.0   .     S
V73     V75    10.0   1_554     S
V73     V79    10.0   .     S
V73     V85    10.0   .     S
V74     V76    10.0   .     S
V74     V79    10.0   .     S
V74     V77    10.0   .     S
V74     V75    10.0   .     S
V74     V80    10.0   .     S
V74     V86    10.0   .     S
V75     V77    10.0   .     S
V75     V80    10.0   .     S
V75     V78    10.0   .     S
V75     V73    10.0   1_556     S
V75     V81    10.0   .     S
V75     V87    10.0   .     S
V76     V83    10.0   .     S
V76     V78    10.0   1_554     S
V76     V77    10.0   .     S
V76     V82    10.0   .     S
V76     V49    10.0   1_565     S
V77     V84    10.0   .     S
V77     V78    10.0   .     S
V77     V83    10.0   .     S
V77     V50    10.0   1_565     S
V78     V73    10.0   1_556     S
V78     V82    10.0   1_556     S
V78     V76    10.0   1_556     S
V78     V84    10.0   .     S
V78     V64    10.0   1_556     S
V78     V51    10.0   1_565     S
V79     V83    10.0   .     S
V79     V82    10.0   .     S
V79     V81    10.0   1_554     S
V79     V80    10.0   .     S
V80     V84    10.0   .     S
V80     V83    10.0   .     S
V80     V81    10.0   .     S
V81     V82    10.0   1_556     S
V81     V73    10.0   1_556     S
V81     V84    10.0   .     S
V81     V79    10.0   1_556     S
V81     V7    10.0   1_556     S
V82     V81    10.0   1_554     S
V82     V78    10.0   1_554     S
V82     V83    10.0   .     S
V82     V84    10.0   1_554     S
V82     V55    10.0   1_565     S
V83     V84    10.0   .     S
V83     V56    10.0   1_565     S
V84     V82    10.0   1_556     S
V84     V57    10.0   1_565     S
V85     V88    10.0   .     S
V85     V94    10.0   .     S
V85     V90    10.0   1_554     S
V85     V86    10.0   .     S
V85     V87    10.0   1_554     S
V85     V96    10.0   1_554     S
V86     V89    10.0   .     S
V86     V95    10.0   .     S
V86     V88    10.0   .     S
V86     V87    10.0   .     S
V86     V94    10.0   .     S
V87     V90    10.0   .     S
V87     V96    10.0   .     S
V87     V89    10.0   .     S
V87     V85    10.0   1_556     S
V87     V95    10.0   .     S
V88     V91    10.0   .     S
V88     V90    10.0   1_554     S
V88     V89    10.0   .     S
V88     V92    10.0   .     S
V88     V61    10.0   1_545     S
V89     V92    10.0   .     S
V89     V90    10.0   .     S
V89     V93    10.0   .     S
V89     V62    10.0   1_545     S
V90     V93    10.0   .     S
V90     V85    10.0   1_556     S
V90     V88    10.0   1_556     S
V90     V91    10.0   1_556     S
V90     V63    10.0   1_545     S
V91     V94    10.0   .     S
V91     V96    10.0   1_554     S
V91     V92    10.0   .     S
V91     V93    10.0   1_554     S
V91     V90    10.0   1_554     S
V91     V37    10.0   1_655     S
V91     V67    10.0   1_545     S
V92     V95    10.0   .     S
V92     V94    10.0   .     S
V92     V93    10.0   .     S
V92     V38    10.0   1_655     S
V92     V68    10.0   1_545     S
V93     V96    10.0   .     S
V93     V95    10.0   .     S
V93     V91    10.0   1_556     S
V93     V39    10.0   1_655     S
V93     V69    10.0   1_545     S
V94     V96    10.0   1_554     S
V94     V95    10.0   .     S
V94     V25    10.0   1_655     S
V95     V96    10.0   .     S
V95     V26    10.0   1_655     S
V96     V91    10.0   1_556     S
V96     V94    10.0   1_556     S
V96     V85    10.0   1_556     S
V96     V27    10.0   1_655     S
