data_spp
_audit_creation_date              2019-12-31
_audit_creation_method            'Pymatgen'
_symmetry_space_group_name_H-M    'P1'
_symmetry_Int_Tables_number       1
loop_
_symmetry_equiv_pos_as_xyz
  x,y,z
_cell_length_a                    30.558
_cell_length_b                    30.558
_cell_length_c                    31.5056
_cell_angle_alpha                 90.0
_cell_angle_beta                 90.0
_cell_angle_gamma                 120.0
loop_
_atom_site_label
_atom_site_type_symbol
_atom_site_fract_x
_atom_site_fract_y
_atom_site_fract_z
Ti1     Ti     0.1667   0.3333   0.25
Ti2     Ti     0.1667   0.3333   0.75
Ti3     Ti     0.1667   0.8333   0.25
Ti4     Ti     0.1667   0.8333   0.75
Ti5     Ti     0.6667   0.3333   0.25
Ti6     Ti     0.6667   0.3333   0.75
Ti7     Ti     0.6667   0.8333   0.25
Ti8     Ti     0.6667   0.8333   0.75
Ti9     Ti     0.3333   0.1667   0.25
Ti10     Ti     0.3333   0.1667   0.75
Ti11     Ti     0.3333   0.6667   0.25
Ti12     Ti     0.3333   0.6667   0.75
Ti13     Ti     0.8333   0.1667   0.25
Ti14     Ti     0.8333   0.1667   0.75
Ti15     Ti     0.8333   0.6667   0.25
Ti16     Ti     0.8333   0.6667   0.75
V17     V     0.0   0.25   0.0
V18     V     0.0   0.25   0.5
V19     V     0.0   0.75   0.0
V20     V     0.0   0.75   0.5
V21     V     0.5   0.25   0.0
V22     V     0.5   0.25   0.5
V23     V     0.5   0.75   0.0
V24     V     0.5   0.75   0.5
V25     V     0.25   0.0   0.0
V26     V     0.25   0.0   0.5
V27     V     0.25   0.5   0.0
V28     V     0.25   0.5   0.5
V29     V     0.75   0.0   0.0
V30     V     0.75   0.0   0.5
V31     V     0.75   0.5   0.0
V32     V     0.75   0.5   0.5
V33     V     0.25   0.25   0.0
V34     V     0.25   0.25   0.5
V35     V     0.25   0.75   0.0
V36     V     0.25   0.75   0.5
V37     V     0.75   0.25   0.0
V38     V     0.75   0.25   0.5
V39     V     0.75   0.75   0.0
V40     V     0.75   0.75   0.5
Er41     Er     0.0   0.0   0.25
Er42     Er     0.0   0.0   0.75
Er43     Er     0.0   0.5   0.25
Er44     Er     0.0   0.5   0.75
Er45     Er     0.5   0.0   0.25
Er46     Er     0.5   0.0   0.75
Er47     Er     0.5   0.5   0.25
Er48     Er     0.5   0.5   0.75
loop_
_geom_bond_atom_site_label_1
_geom_bond_atom_site_label_2
_geom_bond_distance
_geom_bond_site_symmetry_2
_ccdc_geom_bond_type
Ti1     V34    9.027   .     S
Ti1     V28    9.027   .     S
Ti1     V18    9.027   .     S
Ti1     V27    9.027   .     S
Ti1     V33    9.027   .     S
Ti1     V17    9.027   .     S
Ti2     V33    9.027   1_556     S
Ti2     V27    9.027   1_556     S
Ti2     V17    9.027   1_556     S
Ti2     V28    9.027   .     S
Ti2     V34    9.027   .     S
Ti2     V18    9.027   .     S
Ti3     V36    9.027   .     S
Ti3     V26    9.027   1_565     S
Ti3     V20    9.027   .     S
Ti3     V25    9.027   1_565     S
Ti3     V35    9.027   .     S
Ti3     V19    9.027   .     S
Ti4     V35    9.027   1_556     S
Ti4     V25    9.027   1_566     S
Ti4     V19    9.027   1_556     S
Ti4     V26    9.027   1_565     S
Ti4     V36    9.027   .     S
Ti4     V20    9.027   .     S
Ti5     V38    9.027   .     S
Ti5     V32    9.027   .     S
Ti5     V22    9.027   .     S
Ti5     V31    9.027   .     S
Ti5     V37    9.027   .     S
Ti5     V21    9.027   .     S
Ti6     V37    9.027   1_556     S
Ti6     V31    9.027   1_556     S
Ti6     V21    9.027   1_556     S
Ti6     V32    9.027   .     S
Ti6     V38    9.027   .     S
Ti6     V22    9.027   .     S
Ti7     V40    9.027   .     S
Ti7     V30    9.027   1_565     S
Ti7     V24    9.027   .     S
Ti7     V29    9.027   1_565     S
Ti7     V39    9.027   .     S
Ti7     V23    9.027   .     S
Ti8     V39    9.027   1_556     S
Ti8     V29    9.027   1_566     S
Ti8     V23    9.027   1_556     S
Ti8     V30    9.027   1_565     S
Ti8     V40    9.027   .     S
Ti8     V24    9.027   .     S
Ti9     V22    9.027   .     S
Ti9     V34    9.027   .     S
Ti9     V26    9.027   .     S
Ti9     V33    9.027   .     S
Ti9     V21    9.027   .     S
Ti9     V25    9.027   .     S
Ti10     V21    9.027   1_556     S
Ti10     V33    9.027   1_556     S
Ti10     V25    9.027   1_556     S
Ti10     V34    9.027   .     S
Ti10     V22    9.027   .     S
Ti10     V26    9.027   .     S
Ti11     V24    9.027   .     S
Ti11     V36    9.027   .     S
Ti11     V28    9.027   .     S
Ti11     V35    9.027   .     S
Ti11     V23    9.027   .     S
Ti11     V27    9.027   .     S
Ti12     V23    9.027   1_556     S
Ti12     V35    9.027   1_556     S
Ti12     V27    9.027   1_556     S
Ti12     V36    9.027   .     S
Ti12     V24    9.027   .     S
Ti12     V28    9.027   .     S
Ti13     V18    9.027   1_655     S
Ti13     V38    9.027   .     S
Ti13     V30    9.027   .     S
Ti13     V37    9.027   .     S
Ti13     V17    9.027   1_655     S
Ti13     V29    9.027   .     S
Ti14     V17    9.027   1_656     S
Ti14     V37    9.027   1_556     S
Ti14     V29    9.027   1_556     S
Ti14     V38    9.027   .     S
Ti14     V18    9.027   1_655     S
Ti14     V30    9.027   .     S
Ti15     V20    9.027   1_655     S
Ti15     V40    9.027   .     S
Ti15     V32    9.027   .     S
Ti15     V39    9.027   .     S
Ti15     V19    9.027   1_655     S
Ti15     V31    9.027   .     S
Ti16     V19    9.027   1_656     S
Ti16     V39    9.027   1_556     S
Ti16     V31    9.027   1_556     S
Ti16     V40    9.027   .     S
Ti16     V20    9.027   1_655     S
Ti16     V32    9.027   .     S
V17     Ti2    9.027   1_554     S
V17     Ti14    9.027   1_454     S
V17     Ti13    9.027   1_455     S
V17     Er42    10.973   1_554     S
V17     Er44    10.973   1_554     S
V17     Er41    10.973   .     S
V17     Er43    10.973   .     S
V18     Ti13    9.027   1_455     S
V18     Ti14    9.027   1_455     S
V18     Er41    10.973   .     S
V18     Er43    10.973   .     S
V18     Er42    10.973   .     S
V18     Er44    10.973   .     S
V19     Ti4    9.027   1_554     S
V19     Ti16    9.027   1_454     S
V19     Ti15    9.027   1_455     S
V19     Er44    10.973   1_554     S
V19     Er42    10.973   1_564     S
V19     Er43    10.973   .     S
V19     Er41    10.973   1_565     S
V20     Ti15    9.027   1_455     S
V20     Ti16    9.027   1_455     S
V20     Er43    10.973   .     S
V20     Er41    10.973   1_565     S
V20     Er44    10.973   .     S
V20     Er42    10.973   1_565     S
V21     Ti6    9.027   1_554     S
V21     Ti10    9.027   1_554     S
V21     Er46    10.973   1_554     S
V21     Er48    10.973   1_554     S
V21     Er45    10.973   .     S
V21     Er47    10.973   .     S
V22     Er45    10.973   .     S
V22     Er47    10.973   .     S
V22     Er46    10.973   .     S
V22     Er48    10.973   .     S
V23     Ti8    9.027   1_554     S
V23     Ti12    9.027   1_554     S
V23     Er48    10.973   1_554     S
V23     Er46    10.973   1_564     S
V23     Er47    10.973   .     S
V23     Er45    10.973   1_565     S
V24     Er47    10.973   .     S
V24     Er45    10.973   1_565     S
V24     Er48    10.973   .     S
V24     Er46    10.973   1_565     S
V25     Ti4    9.027   1_544     S
V25     Ti10    9.027   1_554     S
V25     Ti3    9.027   1_545     S
V25     Er42    10.973   1_554     S
V25     Er46    10.973   1_554     S
V25     Er41    10.973   .     S
V25     Er45    10.973   .     S
V26     Ti3    9.027   1_545     S
V26     Ti4    9.027   1_545     S
V26     Er41    10.973   .     S
V26     Er45    10.973   .     S
V26     Er42    10.973   .     S
V26     Er46    10.973   .     S
V27     Ti2    9.027   1_554     S
V27     Ti12    9.027   1_554     S
V27     Er44    10.973   1_554     S
V27     Er48    10.973   1_554     S
V27     Er43    10.973   .     S
V27     Er47    10.973   .     S
V28     Er43    10.973   .     S
V28     Er47    10.973   .     S
V28     Er44    10.973   .     S
V28     Er48    10.973   .     S
V29     Ti8    9.027   1_544     S
V29     Ti14    9.027   1_554     S
V29     Ti7    9.027   1_545     S
V29     Er46    10.973   1_554     S
V29     Er42    10.973   1_654     S
V29     Er45    10.973   .     S
V29     Er41    10.973   1_655     S
V30     Ti7    9.027   1_545     S
V30     Ti8    9.027   1_545     S
V30     Er45    10.973   .     S
V30     Er41    10.973   1_655     S
V30     Er46    10.973   .     S
V30     Er42    10.973   1_655     S
V31     Ti6    9.027   1_554     S
V31     Ti16    9.027   1_554     S
V31     Er48    10.973   1_554     S
V31     Er44    10.973   1_654     S
V31     Er47    10.973   .     S
V31     Er43    10.973   1_655     S
V32     Er47    10.973   .     S
V32     Er43    10.973   1_655     S
V32     Er48    10.973   .     S
V32     Er44    10.973   1_655     S
V33     Ti2    9.027   1_554     S
V33     Ti10    9.027   1_554     S
V33     Er42    10.973   1_554     S
V33     Er48    10.973   1_554     S
V33     Er41    10.973   .     S
V33     Er47    10.973   .     S
V34     Er41    10.973   .     S
V34     Er47    10.973   .     S
V34     Er42    10.973   .     S
V34     Er48    10.973   .     S
V35     Ti4    9.027   1_554     S
V35     Ti12    9.027   1_554     S
V35     Er44    10.973   1_554     S
V35     Er46    10.973   1_564     S
V35     Er43    10.973   .     S
V35     Er45    10.973   1_565     S
V36     Er43    10.973   .     S
V36     Er45    10.973   1_565     S
V36     Er44    10.973   .     S
V36     Er46    10.973   1_565     S
V37     Ti6    9.027   1_554     S
V37     Ti14    9.027   1_554     S
V37     Er46    10.973   1_554     S
V37     Er44    10.973   1_654     S
V37     Er45    10.973   .     S
V37     Er43    10.973   1_655     S
V38     Er45    10.973   .     S
V38     Er43    10.973   1_655     S
V38     Er46    10.973   .     S
V38     Er44    10.973   1_655     S
V39     Ti8    9.027   1_554     S
V39     Ti16    9.027   1_554     S
V39     Er48    10.973   1_554     S
V39     Er42    10.973   1_664     S
V39     Er47    10.973   .     S
V39     Er41    10.973   1_665     S
V40     Er47    10.973   .     S
V40     Er41    10.973   1_665     S
V40     Er48    10.973   .     S
V40     Er42    10.973   1_665     S
Er41     V40    10.973   1_445     S
Er41     V20    10.973   1_545     S
Er41     V30    10.973   1_455     S
Er41     V39    10.973   1_445     S
Er41     V19    10.973   1_545     S
Er41     V29    10.973   1_455     S
Er42     V33    10.973   1_556     S
Er42     V17    10.973   1_556     S
Er42     V25    10.973   1_556     S
Er42     V39    10.973   1_446     S
Er42     V19    10.973   1_546     S
Er42     V29    10.973   1_456     S
Er42     V40    10.973   1_445     S
Er42     V20    10.973   1_545     S
Er42     V30    10.973   1_455     S
Er43     V38    10.973   1_455     S
Er43     V32    10.973   1_455     S
Er43     V37    10.973   1_455     S
Er43     V31    10.973   1_455     S
Er44     V35    10.973   1_556     S
Er44     V19    10.973   1_556     S
Er44     V27    10.973   1_556     S
Er44     V37    10.973   1_456     S
Er44     V17    10.973   1_556     S
Er44     V31    10.973   1_456     S
Er44     V38    10.973   1_455     S
Er44     V32    10.973   1_455     S
Er45     V36    10.973   1_545     S
Er45     V24    10.973   1_545     S
Er45     V35    10.973   1_545     S
Er45     V23    10.973   1_545     S
Er46     V37    10.973   1_556     S
Er46     V21    10.973   1_556     S
Er46     V29    10.973   1_556     S
Er46     V35    10.973   1_546     S
Er46     V23    10.973   1_546     S
Er46     V25    10.973   1_556     S
Er46     V36    10.973   1_545     S
Er46     V24    10.973   1_545     S
Er48     V39    10.973   1_556     S
Er48     V23    10.973   1_556     S
Er48     V31    10.973   1_556     S
Er48     V33    10.973   1_556     S
Er48     V21    10.973   1_556     S
Er48     V27    10.973   1_556     S
