data_sqc
_audit_creation_date              2019-12-31
_audit_creation_method            'Pymatgen'
_symmetry_space_group_name_H-M    'P1'
_symmetry_Int_Tables_number       1
loop_
_symmetry_equiv_pos_as_xyz
  x,y,z
_cell_length_a                    29.2118
_cell_length_b                    29.2118
_cell_length_c                    46.188
_cell_angle_alpha                 90.0
_cell_angle_beta                 90.0
_cell_angle_gamma                 90.0
loop_
_atom_site_label
_atom_site_type_symbol
_atom_site_fract_x
_atom_site_fract_y
_atom_site_fract_z
V1     V     0.0   0.0   0.5
V2     V     0.0   0.5   0.5
V3     V     0.5   0.0   0.5
V4     V     0.5   0.5   0.5
V5     V     0.0   0.25   0.5
V6     V     0.0   0.75   0.5
V7     V     0.5   0.25   0.5
V8     V     0.5   0.75   0.5
Er9     Er     0.25   0.375   0.375
Er10     Er     0.25   0.875   0.375
Er11     Er     0.75   0.375   0.375
Er12     Er     0.75   0.875   0.375
Er13     Er     0.25   0.125   0.625
Er14     Er     0.25   0.625   0.625
Er15     Er     0.75   0.125   0.625
Er16     Er     0.75   0.625   0.625
V17     V     0.25   0.0   0.0
V18     V     0.25   0.5   0.0
V19     V     0.75   0.0   0.0
V20     V     0.75   0.5   0.0
V21     V     0.25   0.25   0.0
V22     V     0.25   0.75   0.0
V23     V     0.75   0.25   0.0
V24     V     0.75   0.75   0.0
Er25     Er     0.0   0.125   0.875
Er26     Er     0.0   0.625   0.875
Er27     Er     0.5   0.125   0.875
Er28     Er     0.5   0.625   0.875
V29     V     0.125   0.375   0.75
V30     V     0.125   0.875   0.75
V31     V     0.625   0.375   0.75
V32     V     0.625   0.875   0.75
V33     V     0.375   0.375   0.75
V34     V     0.375   0.875   0.75
V35     V     0.875   0.375   0.75
V36     V     0.875   0.875   0.75
V37     V     0.125   0.125   0.25
V38     V     0.125   0.625   0.25
V39     V     0.625   0.125   0.25
V40     V     0.625   0.625   0.25
V41     V     0.375   0.125   0.25
V42     V     0.375   0.625   0.25
V43     V     0.875   0.125   0.25
V44     V     0.875   0.625   0.25
Er45     Er     0.0   0.375   0.125
Er46     Er     0.0   0.875   0.125
Er47     Er     0.5   0.375   0.125
Er48     Er     0.5   0.875   0.125
loop_
_geom_bond_atom_site_label_1
_geom_bond_atom_site_label_2
_geom_bond_distance
_geom_bond_site_symmetry_2
_ccdc_geom_bond_type
V1     Er12    10.0   1_445     S
V1     Er15    10.0   1_455     S
V1     Er13    10.0   .     S
V1     Er10    10.0   1_545     S
V2     Er11    10.0   1_455     S
V2     Er16    10.0   1_455     S
V2     Er14    10.0   .     S
V2     Er9    10.0   .     S
V3     Er10    10.0   1_545     S
V3     Er13    10.0   .     S
V3     Er15    10.0   .     S
V3     Er12    10.0   1_545     S
V4     Er9    10.0   .     S
V4     Er14    10.0   .     S
V4     Er16    10.0   .     S
V4     Er11    10.0   .     S
V5     Er11    10.0   1_455     S
V5     Er15    10.0   1_455     S
V5     Er13    10.0   .     S
V5     Er9    10.0   .     S
V6     Er12    10.0   1_455     S
V6     Er16    10.0   1_455     S
V6     Er14    10.0   .     S
V6     Er10    10.0   .     S
V7     Er9    10.0   .     S
V7     Er13    10.0   .     S
V7     Er15    10.0   .     S
V7     Er11    10.0   .     S
V8     Er10    10.0   .     S
V8     Er14    10.0   .     S
V8     Er16    10.0   .     S
V8     Er12    10.0   .     S
Er9     V41    10.0   .     S
Er9     V37    10.0   .     S
Er9     V38    10.0   .     S
Er9     V42    10.0   .     S
Er10     V3    10.0   1_565     S
Er10     V1    10.0   1_565     S
Er10     V42    10.0   .     S
Er10     V38    10.0   .     S
Er10     V37    10.0   1_565     S
Er10     V41    10.0   1_565     S
Er11     V2    10.0   1_655     S
Er11     V5    10.0   1_655     S
Er11     V43    10.0   .     S
Er11     V39    10.0   .     S
Er11     V40    10.0   .     S
Er11     V44    10.0   .     S
Er12     V1    10.0   1_665     S
Er12     V6    10.0   1_655     S
Er12     V3    10.0   1_565     S
Er12     V44    10.0   .     S
Er12     V40    10.0   .     S
Er12     V39    10.0   1_565     S
Er12     V43    10.0   1_565     S
Er13     V33    10.0   .     S
Er13     V29    10.0   .     S
Er13     V30    10.0   1_545     S
Er13     V34    10.0   1_545     S
Er14     V34    10.0   .     S
Er14     V30    10.0   .     S
Er14     V29    10.0   .     S
Er14     V33    10.0   .     S
Er15     V35    10.0   .     S
Er15     V31    10.0   .     S
Er15     V32    10.0   1_545     S
Er15     V36    10.0   1_545     S
Er15     V1    10.0   1_655     S
Er15     V5    10.0   1_655     S
Er16     V36    10.0   .     S
Er16     V32    10.0   .     S
Er16     V31    10.0   .     S
Er16     V35    10.0   .     S
Er16     V2    10.0   1_655     S
Er16     V6    10.0   1_655     S
V17     Er27    10.0   1_554     S
V17     Er25    10.0   1_554     S
V17     Er48    10.0   1_545     S
V17     Er46    10.0   1_545     S
V18     Er28    10.0   1_554     S
V18     Er26    10.0   1_554     S
V18     Er47    10.0   .     S
V18     Er45    10.0   .     S
V19     Er25    10.0   1_654     S
V19     Er27    10.0   1_554     S
V19     Er46    10.0   1_645     S
V19     Er48    10.0   1_545     S
V20     Er26    10.0   1_654     S
V20     Er28    10.0   1_554     S
V20     Er45    10.0   1_655     S
V20     Er47    10.0   .     S
V21     Er27    10.0   1_554     S
V21     Er25    10.0   1_554     S
V21     Er47    10.0   .     S
V21     Er45    10.0   .     S
V22     Er28    10.0   1_554     S
V22     Er26    10.0   1_554     S
V22     Er48    10.0   .     S
V22     Er46    10.0   .     S
V23     Er25    10.0   1_654     S
V23     Er27    10.0   1_554     S
V23     Er45    10.0   1_655     S
V23     Er47    10.0   .     S
V24     Er26    10.0   1_654     S
V24     Er28    10.0   1_554     S
V24     Er46    10.0   1_655     S
V24     Er48    10.0   .     S
Er25     V35    10.0   1_455     S
Er25     V29    10.0   .     S
Er25     V19    10.0   1_456     S
Er25     V23    10.0   1_456     S
Er25     V30    10.0   1_545     S
Er25     V36    10.0   1_445     S
Er25     V17    10.0   1_556     S
Er25     V21    10.0   1_556     S
Er26     V36    10.0   1_455     S
Er26     V30    10.0   .     S
Er26     V20    10.0   1_456     S
Er26     V24    10.0   1_456     S
Er26     V29    10.0   .     S
Er26     V35    10.0   1_455     S
Er26     V18    10.0   1_556     S
Er26     V22    10.0   1_556     S
Er27     V33    10.0   .     S
Er27     V31    10.0   .     S
Er27     V17    10.0   1_556     S
Er27     V21    10.0   1_556     S
Er27     V32    10.0   1_545     S
Er27     V34    10.0   1_545     S
Er27     V19    10.0   1_556     S
Er27     V23    10.0   1_556     S
Er28     V34    10.0   .     S
Er28     V32    10.0   .     S
Er28     V18    10.0   1_556     S
Er28     V22    10.0   1_556     S
Er28     V31    10.0   .     S
Er28     V33    10.0   .     S
Er28     V20    10.0   1_556     S
Er28     V24    10.0   1_556     S
V30     Er13    10.0   1_565     S
V30     Er25    10.0   1_565     S
V32     Er15    10.0   1_565     S
V32     Er27    10.0   1_565     S
V34     Er13    10.0   1_565     S
V34     Er27    10.0   1_565     S
V35     Er25    10.0   1_655     S
V35     Er26    10.0   1_655     S
V36     Er15    10.0   1_565     S
V36     Er26    10.0   1_655     S
V36     Er25    10.0   1_665     S
V37     Er45    10.0   .     S
V37     Er46    10.0   1_545     S
V37     Er10    10.0   1_545     S
V38     Er46    10.0   .     S
V38     Er45    10.0   .     S
V39     Er47    10.0   .     S
V39     Er48    10.0   1_545     S
V39     Er12    10.0   1_545     S
V40     Er48    10.0   .     S
V40     Er47    10.0   .     S
V41     Er47    10.0   .     S
V41     Er48    10.0   1_545     S
V41     Er10    10.0   1_545     S
V42     Er48    10.0   .     S
V42     Er47    10.0   .     S
V43     Er45    10.0   1_655     S
V43     Er46    10.0   1_645     S
V43     Er12    10.0   1_545     S
V44     Er46    10.0   1_655     S
V44     Er45    10.0   1_655     S
Er45     V43    10.0   1_455     S
Er45     V44    10.0   1_455     S
Er45     V20    10.0   1_455     S
Er45     V23    10.0   1_455     S
Er46     V44    10.0   1_455     S
Er46     V37    10.0   1_565     S
Er46     V43    10.0   1_465     S
Er46     V19    10.0   1_465     S
Er46     V24    10.0   1_455     S
Er46     V17    10.0   1_565     S
Er48     V39    10.0   1_565     S
Er48     V41    10.0   1_565     S
Er48     V17    10.0   1_565     S
Er48     V19    10.0   1_565     S
