data_sqs
_audit_creation_date              2019-12-31
_audit_creation_method            'Pymatgen'
_symmetry_space_group_name_H-M    'P1'
_symmetry_Int_Tables_number       1
loop_
_symmetry_equiv_pos_as_xyz
  x,y,z
_cell_length_a                    41.0193
_cell_length_b                    41.0193
_cell_length_c                    25.2548
_cell_angle_alpha                 90.0
_cell_angle_beta                 90.0
_cell_angle_gamma                 120.0
loop_
_atom_site_label
_atom_site_type_symbol
_atom_site_fract_x
_atom_site_fract_y
_atom_site_fract_z
Er1     Er     0.189   0.811   0.25
Er2     Er     0.189   0.811   0.75
Er3     Er     0.189   0.378   0.25
Er4     Er     0.189   0.378   0.75
Er5     Er     0.378   0.189   0.25
Er6     Er     0.378   0.189   0.75
Er7     Er     0.811   0.189   0.25
Er8     Er     0.811   0.189   0.75
V9     V     0.3781   0.0   0.0
V10     V     0.3781   0.0   0.5
V11     V     0.6219   0.0   0.0
V12     V     0.6219   0.0   0.5
Er13     Er     0.622   0.811   0.25
Er14     Er     0.622   0.811   0.75
V15     V     0.0   0.3781   0.0
V16     V     0.0   0.3781   0.5
V17     V     1.0   0.6219   0.0
V18     V     1.0   0.6219   0.5
Er19     Er     0.811   0.622   0.25
Er20     Er     0.811   0.622   0.75
V21     V     0.6219   0.6219   0.0
V22     V     0.6219   0.6219   0.5
V23     V     0.3781   0.3781   0.0
V24     V     0.3781   0.3781   0.5
loop_
_geom_bond_atom_site_label_1
_geom_bond_atom_site_label_2
_geom_bond_distance
_geom_bond_site_symmetry_2
_ccdc_geom_bond_type
Er1     V9    10.0   1_565     S
Er1     V10    10.0   1_565     S
Er1     V18    10.0   1_455     S
Er1     V17    10.0   1_455     S
Er2     V10    10.0   1_565     S
Er2     V9    10.0   1_566     S
Er2     V17    10.0   1_456     S
Er2     V18    10.0   1_455     S
Er3     V24    10.0   .     S
Er3     V23    10.0   .     S
Er3     V15    10.0   .     S
Er3     V16    10.0   .     S
Er4     V23    10.0   1_556     S
Er4     V24    10.0   .     S
Er4     V16    10.0   .     S
Er4     V15    10.0   1_556     S
Er5     V10    10.0   .     S
Er5     V9    10.0   .     S
Er5     V24    10.0   .     S
Er5     V23    10.0   .     S
Er6     V9    10.0   1_556     S
Er6     V10    10.0   .     S
Er6     V23    10.0   1_556     S
Er6     V24    10.0   .     S
Er7     V16    10.0   1_655     S
Er7     V15    10.0   1_655     S
Er7     V11    10.0   .     S
Er7     V12    10.0   .     S
Er8     V15    10.0   1_656     S
Er8     V16    10.0   1_655     S
Er8     V12    10.0   .     S
Er8     V11    10.0   1_556     S
V9     Er1    10.0   1_545     S
V9     Er2    10.0   1_544     S
V9     Er6    10.0   1_554     S
V9     V11    10.0   .     S
V10     Er2    10.0   1_545     S
V10     Er1    10.0   1_545     S
V10     V12    10.0   .     S
V11     Er8    10.0   1_554     S
V11     Er14    10.0   1_544     S
V11     Er13    10.0   1_545     S
V12     Er13    10.0   1_545     S
V12     Er14    10.0   1_545     S
Er13     V12    10.0   1_565     S
Er13     V11    10.0   1_565     S
Er13     V21    10.0   .     S
Er13     V22    10.0   .     S
Er14     V11    10.0   1_566     S
Er14     V12    10.0   1_565     S
Er14     V22    10.0   .     S
Er14     V21    10.0   1_556     S
V15     Er8    10.0   1_454     S
V15     Er7    10.0   1_455     S
V15     V17    10.0   1_455     S
V15     Er4    10.0   1_554     S
V16     Er7    10.0   1_455     S
V16     Er8    10.0   1_455     S
V16     V18    10.0   1_455     S
V17     Er2    10.0   1_654     S
V17     Er1    10.0   1_655     S
V17     V15    10.0   1_655     S
V17     Er19    10.0   .     S
V17     Er20    10.0   1_554     S
V18     Er1    10.0   1_655     S
V18     Er2    10.0   1_655     S
V18     V16    10.0   1_655     S
V18     Er20    10.0   .     S
V18     Er19    10.0   .     S
Er19     V22    10.0   .     S
Er19     V21    10.0   .     S
Er20     V17    10.0   1_556     S
Er20     V21    10.0   1_556     S
Er20     V22    10.0   .     S
V21     Er20    10.0   1_554     S
V21     V23    10.0   .     S
V21     Er14    10.0   1_554     S
V22     V24    10.0   .     S
V23     Er4    10.0   1_554     S
V23     Er6    10.0   1_554     S
