data_sra-e
_audit_creation_date              2019-12-31
_audit_creation_method            'Pymatgen'
_symmetry_space_group_name_H-M    'P1'
_symmetry_Int_Tables_number       1
loop_
_symmetry_equiv_pos_as_xyz
  x,y,z
_cell_length_a                    38.1511
_cell_length_b                    40.0
_cell_length_c                    32.9873
_cell_angle_alpha                 90.0
_cell_angle_beta                 90.0
_cell_angle_gamma                 90.0
loop_
_atom_site_label
_atom_site_type_symbol
_atom_site_fract_x
_atom_site_fract_y
_atom_site_fract_z
V1     V     0.8193   0.25   0.5
V2     V     0.8193   0.75   0.5
V3     V     0.8193   0.0   0.5
V4     V     0.8193   0.5   0.5
Er5     Er     0.5   0.125   0.8411
Er6     Er     0.5   0.625   0.8411
Er7     Er     0.0   0.125   0.6589
Er8     Er     0.0   0.625   0.6589
Ti9     Ti     0.25   0.125   0.75
Ti10     Ti     0.25   0.625   0.75
Ti11     Ti     0.75   0.125   0.75
Ti12     Ti     0.75   0.625   0.75
V13     V     0.6807   0.25   0.0
V14     V     0.6807   0.75   0.0
V15     V     0.6807   0.0   0.0
V16     V     0.6807   0.5   0.0
V17     V     0.1807   0.0   0.5
V18     V     0.1807   0.5   0.5
V19     V     0.1807   0.25   0.5
V20     V     0.1807   0.75   0.5
Er21     Er     0.5   0.375   0.1589
Er22     Er     0.5   0.875   0.1589
Er23     Er     0.0   0.375   0.3411
Er24     Er     0.0   0.875   0.3411
Ti25     Ti     0.25   0.375   0.25
Ti26     Ti     0.25   0.875   0.25
Ti27     Ti     0.75   0.375   0.25
Ti28     Ti     0.75   0.875   0.25
V29     V     0.3193   0.0   0.0
V30     V     0.3193   0.5   0.0
V31     V     0.3193   0.25   0.0
V32     V     0.3193   0.75   0.0
loop_
_geom_bond_atom_site_label_1
_geom_bond_atom_site_label_2
_geom_bond_distance
_geom_bond_site_symmetry_2
_ccdc_geom_bond_type
V1     V4    10.0   .     S
V1     V3    10.0   .     S
V1     Ti11    10.0   .     S
V1     Er7    10.0   1_655     S
V1     Er23    10.0   1_655     S
V1     Ti27    10.0   .     S
V2     V3    10.0   1_565     S
V2     V4    10.0   .     S
V2     Ti12    10.0   .     S
V2     Er8    10.0   1_655     S
V2     Er24    10.0   1_655     S
V2     Ti28    10.0   .     S
V3     V2    10.0   1_545     S
V3     Ti11    10.0   .     S
V3     Er7    10.0   1_655     S
V3     Er24    10.0   1_645     S
V3     Ti28    10.0   1_545     S
V4     Ti12    10.0   .     S
V4     Er8    10.0   1_655     S
V4     Er23    10.0   1_655     S
V4     Ti27    10.0   .     S
Er5     V13    10.0   1_556     S
Er5     V15    10.0   1_556     S
Er5     Ti11    10.0   .     S
Er5     Ti9    10.0   .     S
Er5     V29    10.0   1_556     S
Er5     V31    10.0   1_556     S
Er6     V14    10.0   1_556     S
Er6     V16    10.0   1_556     S
Er6     Ti12    10.0   .     S
Er6     Ti10    10.0   .     S
Er6     V30    10.0   1_556     S
Er6     V32    10.0   1_556     S
Er7     V17    10.0   .     S
Er7     V19    10.0   .     S
Er7     V1    10.0   1_455     S
Er7     V3    10.0   1_455     S
Er7     Ti11    10.0   1_455     S
Er7     Ti9    10.0   .     S
Er8     V18    10.0   .     S
Er8     V20    10.0   .     S
Er8     V2    10.0   1_455     S
Er8     V4    10.0   1_455     S
Er8     Ti12    10.0   1_455     S
Er8     Ti10    10.0   .     S
Ti9     V17    10.0   .     S
Ti9     V19    10.0   .     S
Ti9     V29    10.0   1_556     S
Ti9     V31    10.0   1_556     S
Ti10     V18    10.0   .     S
Ti10     V20    10.0   .     S
Ti10     V30    10.0   1_556     S
Ti10     V32    10.0   1_556     S
Ti11     V13    10.0   1_556     S
Ti11     V15    10.0   1_556     S
Ti11     Er7    10.0   1_655     S
Ti12     V14    10.0   1_556     S
Ti12     V16    10.0   1_556     S
Ti12     Er8    10.0   1_655     S
V13     Er5    10.0   1_554     S
V13     Ti11    10.0   1_554     S
V13     V15    10.0   .     S
V13     V16    10.0   .     S
V13     Er21    10.0   .     S
V13     Ti27    10.0   .     S
V14     Er6    10.0   1_554     S
V14     Ti12    10.0   1_554     S
V14     V16    10.0   .     S
V14     V15    10.0   1_565     S
V14     Er22    10.0   .     S
V14     Ti28    10.0   .     S
V15     Er5    10.0   1_554     S
V15     Ti11    10.0   1_554     S
V15     V14    10.0   1_545     S
V15     Er22    10.0   1_545     S
V15     Ti28    10.0   1_545     S
V16     Er6    10.0   1_554     S
V16     Ti12    10.0   1_554     S
V16     Er21    10.0   .     S
V16     Ti27    10.0   .     S
V17     V20    10.0   1_545     S
V17     V19    10.0   .     S
V17     Ti26    10.0   1_545     S
V17     Er24    10.0   1_545     S
V18     V19    10.0   .     S
V18     V20    10.0   .     S
V18     Ti25    10.0   .     S
V18     Er23    10.0   .     S
V19     Ti25    10.0   .     S
V19     Er23    10.0   .     S
V20     V17    10.0   1_565     S
V20     Ti26    10.0   .     S
V20     Er24    10.0   .     S
Er21     Ti27    10.0   .     S
Er21     Ti25    10.0   .     S
Er21     V30    10.0   .     S
Er21     V31    10.0   .     S
Er22     V15    10.0   1_565     S
Er22     Ti28    10.0   .     S
Er22     Ti26    10.0   .     S
Er22     V29    10.0   1_565     S
Er22     V32    10.0   .     S
Er23     V1    10.0   1_455     S
Er23     V4    10.0   1_455     S
Er23     Ti27    10.0   1_455     S
Er23     Ti25    10.0   .     S
Er24     V17    10.0   1_565     S
Er24     V2    10.0   1_455     S
Er24     V3    10.0   1_465     S
Er24     Ti28    10.0   1_455     S
Er24     Ti26    10.0   .     S
Ti25     V30    10.0   .     S
Ti25     V31    10.0   .     S
Ti26     V17    10.0   1_565     S
Ti26     V29    10.0   1_565     S
Ti26     V32    10.0   .     S
Ti27     Er23    10.0   1_655     S
Ti28     V15    10.0   1_565     S
Ti28     V3    10.0   1_565     S
Ti28     Er24    10.0   1_655     S
V29     Ti9    10.0   1_554     S
V29     Er5    10.0   1_554     S
V29     V31    10.0   .     S
V29     V32    10.0   1_545     S
V29     Ti26    10.0   1_545     S
V29     Er22    10.0   1_545     S
V30     Ti10    10.0   1_554     S
V30     Er6    10.0   1_554     S
V30     V32    10.0   .     S
V30     V31    10.0   .     S
V31     Ti9    10.0   1_554     S
V31     Er5    10.0   1_554     S
V32     Ti10    10.0   1_554     S
V32     Er6    10.0   1_554     S
V32     V29    10.0   1_565     S
