data_srb
_audit_creation_date              2019-12-31
_audit_creation_method            'Pymatgen'
_symmetry_space_group_name_H-M    'P1'
_symmetry_Int_Tables_number       1
loop_
_symmetry_equiv_pos_as_xyz
  x,y,z
_cell_length_a                    34.1376
_cell_length_b                    49.7185
_cell_length_c                    27.9047
_cell_angle_alpha                 90.0
_cell_angle_beta                 90.0
_cell_angle_gamma                 90.0
loop_
_atom_site_label
_atom_site_type_symbol
_atom_site_fract_x
_atom_site_fract_y
_atom_site_fract_z
Er1     Er     0.0   0.9511   0.1566
Er2     Er     0.5   0.9511   0.1566
Er3     Er     0.25   0.9511   0.3434
Er4     Er     0.75   0.9511   0.3434
V5     V     0.25   0.75   0.3434
V6     V     0.75   0.75   0.3434
V7     V     0.0   0.75   0.1566
V8     V     0.5   0.75   0.1566
Er9     Er     0.0   0.5489   0.1566
Er10     Er     0.5   0.5489   0.1566
Er11     Er     0.25   0.5489   0.3434
Er12     Er     0.75   0.5489   0.3434
Er13     Er     0.0   0.0489   0.8434
Er14     Er     0.5   0.0489   0.8434
Er15     Er     0.25   0.0489   0.6566
Er16     Er     0.75   0.0489   0.6566
V17     V     0.25   0.25   0.6566
V18     V     0.75   0.25   0.6566
V19     V     0.0   0.25   0.8434
V20     V     0.5   0.25   0.8434
Er21     Er     0.0   0.4511   0.8434
Er22     Er     0.5   0.4511   0.8434
Er23     Er     0.25   0.4511   0.6566
Er24     Er     0.75   0.4511   0.6566
loop_
_geom_bond_atom_site_label_1
_geom_bond_atom_site_label_2
_geom_bond_distance
_geom_bond_site_symmetry_2
_ccdc_geom_bond_type
Er1     Er4    10.0   1_455     S
Er1     Er3    10.0   .     S
Er1     V7    10.0   .     S
Er1     Er13    10.0   1_564     S
Er2     Er3    10.0   .     S
Er2     Er4    10.0   .     S
Er2     V8    10.0   .     S
Er2     Er14    10.0   1_564     S
Er3     V5    10.0   .     S
Er3     Er15    10.0   1_565     S
Er4     Er1    10.0   1_655     S
Er4     V6    10.0   .     S
Er4     Er16    10.0   1_565     S
V5     Er11    10.0   .     S
V5     V8    10.0   .     S
V5     V7    10.0   .     S
V6     Er12    10.0   .     S
V6     V7    10.0   1_655     S
V6     V8    10.0   .     S
V7     Er9    10.0   .     S
V7     V6    10.0   1_455     S
V8     Er10    10.0   .     S
Er9     Er11    10.0   .     S
Er9     Er12    10.0   1_455     S
Er9     Er21    10.0   1_554     S
Er10     Er12    10.0   .     S
Er10     Er11    10.0   .     S
Er10     Er22    10.0   1_554     S
Er11     Er23    10.0   .     S
Er12     Er9    10.0   1_655     S
Er12     Er24    10.0   .     S
Er13     Er16    10.0   1_455     S
Er13     Er15    10.0   .     S
Er13     V19    10.0   .     S
Er13     Er1    10.0   1_546     S
Er14     Er15    10.0   .     S
Er14     Er16    10.0   .     S
Er14     V20    10.0   .     S
Er14     Er2    10.0   1_546     S
Er15     V17    10.0   .     S
Er15     Er3    10.0   1_545     S
Er16     Er13    10.0   1_655     S
Er16     V18    10.0   .     S
Er16     Er4    10.0   1_545     S
V17     Er23    10.0   .     S
V17     V20    10.0   .     S
V17     V19    10.0   .     S
V18     Er24    10.0   .     S
V18     V19    10.0   1_655     S
V18     V20    10.0   .     S
V19     Er21    10.0   .     S
V19     V18    10.0   1_455     S
V20     Er22    10.0   .     S
Er21     Er24    10.0   1_455     S
Er21     Er23    10.0   .     S
Er21     Er9    10.0   1_556     S
Er22     Er23    10.0   .     S
Er22     Er24    10.0   .     S
Er22     Er10    10.0   1_556     S
Er24     Er21    10.0   1_655     S
