data_src
_audit_creation_date              2019-12-31
_audit_creation_method            'Pymatgen'
_symmetry_space_group_name_H-M    'P1'
_symmetry_Int_Tables_number       1
loop_
_symmetry_equiv_pos_as_xyz
  x,y,z
_cell_length_a                    36.3318
_cell_length_b                    36.3318
_cell_length_c                    36.3318
_cell_angle_alpha                 90.0
_cell_angle_beta                 90.0
_cell_angle_gamma                 90.0
loop_
_atom_site_label
_atom_site_type_symbol
_atom_site_fract_x
_atom_site_fract_y
_atom_site_fract_z
Er1     Er     0.25   0.25   0.25
Er2     Er     0.25   0.25   0.75
Er3     Er     0.25   0.75   0.25
Er4     Er     0.25   0.75   0.75
Er5     Er     0.75   0.25   0.25
Er6     Er     0.75   0.25   0.75
Er7     Er     0.75   0.75   0.25
Er8     Er     0.75   0.75   0.75
Er9     Er     0.0   0.0   0.0
Er10     Er     0.0   0.0   0.5
Er11     Er     0.0   0.5   0.0
Er12     Er     0.0   0.5   0.5
Er13     Er     0.5   0.0   0.0
Er14     Er     0.5   0.0   0.5
Er15     Er     0.5   0.5   0.0
Er16     Er     0.5   0.5   0.5
V17     V     0.125   0.125   0.125
V18     V     0.125   0.125   0.625
V19     V     0.125   0.625   0.125
V20     V     0.125   0.625   0.625
V21     V     0.625   0.125   0.125
V22     V     0.625   0.125   0.625
V23     V     0.625   0.625   0.125
V24     V     0.625   0.625   0.625
V25     V     0.125   0.375   0.375
V26     V     0.125   0.375   0.875
V27     V     0.125   0.875   0.375
V28     V     0.125   0.875   0.875
V29     V     0.625   0.375   0.375
V30     V     0.625   0.375   0.875
V31     V     0.625   0.875   0.375
V32     V     0.625   0.875   0.875
V33     V     0.375   0.375   0.125
V34     V     0.375   0.375   0.625
V35     V     0.375   0.875   0.125
V36     V     0.375   0.875   0.625
V37     V     0.875   0.375   0.125
V38     V     0.875   0.375   0.625
V39     V     0.875   0.875   0.125
V40     V     0.875   0.875   0.625
V41     V     0.375   0.125   0.375
V42     V     0.375   0.125   0.875
V43     V     0.375   0.625   0.375
V44     V     0.375   0.625   0.875
V45     V     0.875   0.125   0.375
V46     V     0.875   0.125   0.875
V47     V     0.875   0.625   0.375
V48     V     0.875   0.625   0.875
loop_
_geom_bond_atom_site_label_1
_geom_bond_atom_site_label_2
_geom_bond_distance
_geom_bond_site_symmetry_2
_ccdc_geom_bond_type
Er1     V25    7.866   .     S
Er1     V41    7.866   .     S
Er1     V33    7.866   .     S
Er1     V17    7.866   .     S
Er2     V26    7.866   .     S
Er2     V42    7.866   .     S
Er2     V34    7.866   .     S
Er2     V18    7.866   .     S
Er3     V27    7.866   .     S
Er3     V43    7.866   .     S
Er3     V35    7.866   .     S
Er3     V19    7.866   .     S
Er4     V28    7.866   .     S
Er4     V44    7.866   .     S
Er4     V36    7.866   .     S
Er4     V20    7.866   .     S
Er5     V29    7.866   .     S
Er5     V45    7.866   .     S
Er5     V37    7.866   .     S
Er5     V21    7.866   .     S
Er6     V30    7.866   .     S
Er6     V46    7.866   .     S
Er6     V38    7.866   .     S
Er6     V22    7.866   .     S
Er7     V31    7.866   .     S
Er7     V47    7.866   .     S
Er7     V39    7.866   .     S
Er7     V23    7.866   .     S
Er8     V32    7.866   .     S
Er8     V48    7.866   .     S
Er8     V40    7.866   .     S
Er8     V24    7.866   .     S
Er9     V39    7.866   1_445     S
Er9     V28    7.866   1_544     S
Er9     V46    7.866   1_454     S
Er9     V17    7.866   .     S
Er10     V40    7.866   1_445     S
Er10     V27    7.866   1_545     S
Er10     V45    7.866   1_455     S
Er10     V18    7.866   .     S
Er11     V37    7.866   1_455     S
Er11     V26    7.866   1_554     S
Er11     V48    7.866   1_454     S
Er11     V19    7.866   .     S
Er12     V38    7.866   1_455     S
Er12     V25    7.866   .     S
Er12     V47    7.866   1_455     S
Er12     V20    7.866   .     S
Er13     V35    7.866   1_545     S
Er13     V32    7.866   1_544     S
Er13     V42    7.866   1_554     S
Er13     V21    7.866   .     S
Er14     V36    7.866   1_545     S
Er14     V31    7.866   1_545     S
Er14     V41    7.866   .     S
Er14     V22    7.866   .     S
Er15     V33    7.866   .     S
Er15     V30    7.866   1_554     S
Er15     V44    7.866   1_554     S
Er15     V23    7.866   .     S
Er16     V34    7.866   .     S
Er16     V29    7.866   .     S
Er16     V43    7.866   .     S
Er16     V24    7.866   .     S
V17     V26    12.845   1_554     S
V17     V45    12.845   1_455     S
V17     V35    12.845   1_545     S
V18     V25    12.845   .     S
V18     V46    12.845   1_455     S
V18     V36    12.845   1_545     S
V19     V28    12.845   1_554     S
V19     V47    12.845   1_455     S
V19     V33    12.845   .     S
V20     V27    12.845   .     S
V20     V48    12.845   1_455     S
V20     V34    12.845   .     S
V21     V30    12.845   1_554     S
V21     V41    12.845   .     S
V21     V39    12.845   1_545     S
V22     V29    12.845   .     S
V22     V42    12.845   .     S
V22     V40    12.845   1_545     S
V23     V32    12.845   1_554     S
V23     V43    12.845   .     S
V23     V37    12.845   .     S
V24     V31    12.845   .     S
V24     V44    12.845   .     S
V24     V38    12.845   .     S
V25     V37    12.845   1_455     S
V25     V43    12.845   .     S
V26     V17    12.845   1_556     S
V26     V38    12.845   1_455     S
V26     V44    12.845   .     S
V26     Er11    7.866   1_556     S
V27     V39    12.845   1_455     S
V27     V41    12.845   1_565     S
V27     Er10    7.866   1_565     S
V28     V19    12.845   1_556     S
V28     V40    12.845   1_455     S
V28     V42    12.845   1_565     S
V28     Er9    7.866   1_566     S
V29     V33    12.845   .     S
V29     V47    12.845   .     S
V30     V21    12.845   1_556     S
V30     V34    12.845   .     S
V30     V48    12.845   .     S
V30     Er15    7.866   1_556     S
V31     V35    12.845   .     S
V31     V45    12.845   1_565     S
V31     Er14    7.866   1_565     S
V32     V23    12.845   1_556     S
V32     V36    12.845   .     S
V32     V46    12.845   1_565     S
V32     Er13    7.866   1_566     S
V33     V42    12.845   1_554     S
V34     V41    12.845   .     S
V35     V44    12.845   1_554     S
V35     V17    12.845   1_565     S
V35     Er13    7.866   1_565     S
V36     V43    12.845   .     S
V36     V18    12.845   1_565     S
V36     Er14    7.866   1_565     S
V37     V25    12.845   1_655     S
V37     V46    12.845   1_554     S
V37     Er11    7.866   1_655     S
V38     V26    12.845   1_655     S
V38     V45    12.845   .     S
V38     Er12    7.866   1_655     S
V39     V27    12.845   1_655     S
V39     V48    12.845   1_554     S
V39     V21    12.845   1_565     S
V39     Er9    7.866   1_665     S
V40     V28    12.845   1_655     S
V40     V47    12.845   .     S
V40     V22    12.845   1_565     S
V40     Er10    7.866   1_665     S
V41     V27    12.845   1_545     S
V42     V33    12.845   1_556     S
V42     V28    12.845   1_545     S
V42     Er13    7.866   1_556     S
V44     V35    12.845   1_556     S
V44     Er15    7.866   1_556     S
V45     V17    12.845   1_655     S
V45     V31    12.845   1_545     S
V45     Er10    7.866   1_655     S
V46     V37    12.845   1_556     S
V46     V18    12.845   1_655     S
V46     V32    12.845   1_545     S
V46     Er9    7.866   1_656     S
V47     V19    12.845   1_655     S
V47     Er12    7.866   1_655     S
V48     V39    12.845   1_556     S
V48     V20    12.845   1_655     S
V48     Er11    7.866   1_656     S
