data_srd
_audit_creation_date              2019-12-31
_audit_creation_method            'Pymatgen'
_symmetry_space_group_name_H-M    'P1'
_symmetry_Int_Tables_number       1
loop_
_symmetry_equiv_pos_as_xyz
  x,y,z
_cell_length_a                    49.7056
_cell_length_b                    49.7056
_cell_length_c                    49.7056
_cell_angle_alpha                 90.0
_cell_angle_beta                 90.0
_cell_angle_gamma                 90.0
loop_
_atom_site_label
_atom_site_type_symbol
_atom_site_fract_x
_atom_site_fract_y
_atom_site_fract_z
Er1     Er     0.375   0.125   0.375
Er2     Er     0.375   0.125   0.875
Er3     Er     0.375   0.625   0.375
Er4     Er     0.375   0.625   0.875
Er5     Er     0.875   0.125   0.375
Er6     Er     0.875   0.125   0.875
Er7     Er     0.875   0.625   0.375
Er8     Er     0.875   0.625   0.875
Er9     Er     0.375   0.375   0.125
Er10     Er     0.375   0.375   0.625
Er11     Er     0.375   0.875   0.125
Er12     Er     0.375   0.875   0.625
Er13     Er     0.875   0.375   0.125
Er14     Er     0.875   0.375   0.625
Er15     Er     0.875   0.875   0.125
Er16     Er     0.875   0.875   0.625
Er17     Er     0.125   0.375   0.375
Er18     Er     0.125   0.375   0.875
Er19     Er     0.125   0.875   0.375
Er20     Er     0.125   0.875   0.875
Er21     Er     0.625   0.375   0.375
Er22     Er     0.625   0.375   0.875
Er23     Er     0.625   0.875   0.375
Er24     Er     0.625   0.875   0.875
Er25     Er     0.125   0.125   0.125
Er26     Er     0.125   0.125   0.625
Er27     Er     0.125   0.625   0.125
Er28     Er     0.125   0.625   0.625
Er29     Er     0.625   0.125   0.125
Er30     Er     0.625   0.125   0.625
Er31     Er     0.625   0.625   0.125
Er32     Er     0.625   0.625   0.625
V33     V     0.0   0.125   0.25
V34     V     0.0   0.125   0.75
V35     V     0.0   0.625   0.25
V36     V     0.0   0.625   0.75
V37     V     0.5   0.125   0.25
V38     V     0.5   0.125   0.75
V39     V     0.5   0.625   0.25
V40     V     0.5   0.625   0.75
V41     V     0.125   0.25   0.0
V42     V     0.125   0.25   0.5
V43     V     0.125   0.75   0.0
V44     V     0.125   0.75   0.5
V45     V     0.625   0.25   0.0
V46     V     0.625   0.25   0.5
V47     V     0.625   0.75   0.0
V48     V     0.625   0.75   0.5
V49     V     0.25   0.0   0.125
V50     V     0.25   0.0   0.625
V51     V     0.25   0.5   0.125
V52     V     0.25   0.5   0.625
V53     V     0.75   0.0   0.125
V54     V     0.75   0.0   0.625
V55     V     0.75   0.5   0.125
V56     V     0.75   0.5   0.625
V57     V     0.0   0.375   0.25
V58     V     0.0   0.375   0.75
V59     V     0.0   0.875   0.25
V60     V     0.0   0.875   0.75
V61     V     0.5   0.375   0.25
V62     V     0.5   0.375   0.75
V63     V     0.5   0.875   0.25
V64     V     0.5   0.875   0.75
V65     V     0.25   0.0   0.375
V66     V     0.25   0.0   0.875
V67     V     0.25   0.5   0.375
V68     V     0.25   0.5   0.875
V69     V     0.75   0.0   0.375
V70     V     0.75   0.0   0.875
V71     V     0.75   0.5   0.375
V72     V     0.75   0.5   0.875
V73     V     0.375   0.25   0.0
V74     V     0.375   0.25   0.5
V75     V     0.375   0.75   0.0
V76     V     0.375   0.75   0.5
V77     V     0.875   0.25   0.0
V78     V     0.875   0.25   0.5
V79     V     0.875   0.75   0.0
V80     V     0.875   0.75   0.5
loop_
_geom_bond_atom_site_label_1
_geom_bond_atom_site_label_2
_geom_bond_distance
_geom_bond_site_symmetry_2
_ccdc_geom_bond_type
Er1     V37    8.787   .     S
Er1     V65    8.787   .     S
Er1     V74    8.787   .     S
Er2     V38    8.787   .     S
Er2     V66    8.787   .     S
Er2     V73    8.787   1_556     S
Er3     V39    8.787   .     S
Er3     V67    8.787   .     S
Er3     V76    8.787   .     S
Er4     V40    8.787   .     S
Er4     V68    8.787   .     S
Er4     V75    8.787   1_556     S
Er5     V33    8.787   1_655     S
Er5     V69    8.787   .     S
Er5     V78    8.787   .     S
Er6     V34    8.787   1_655     S
Er6     V70    8.787   .     S
Er6     V77    8.787   1_556     S
Er7     V35    8.787   1_655     S
Er7     V71    8.787   .     S
Er7     V80    8.787   .     S
Er8     V36    8.787   1_655     S
Er8     V72    8.787   .     S
Er8     V79    8.787   1_556     S
Er9     V73    8.787   .     S
Er9     V51    8.787   .     S
Er9     V61    8.787   .     S
Er10     V74    8.787   .     S
Er10     V52    8.787   .     S
Er10     V62    8.787   .     S
Er11     V75    8.787   .     S
Er11     V49    8.787   1_565     S
Er11     V63    8.787   .     S
Er12     V76    8.787   .     S
Er12     V50    8.787   1_565     S
Er12     V64    8.787   .     S
Er13     V77    8.787   .     S
Er13     V55    8.787   .     S
Er13     V57    8.787   1_655     S
Er14     V78    8.787   .     S
Er14     V56    8.787   .     S
Er14     V58    8.787   1_655     S
Er15     V79    8.787   .     S
Er15     V53    8.787   1_565     S
Er15     V59    8.787   1_655     S
Er16     V80    8.787   .     S
Er16     V54    8.787   1_565     S
Er16     V60    8.787   1_655     S
Er17     V42    8.787   .     S
Er17     V57    8.787   .     S
Er17     V67    8.787   .     S
Er18     V41    8.787   1_556     S
Er18     V58    8.787   .     S
Er18     V68    8.787   .     S
Er19     V44    8.787   .     S
Er19     V59    8.787   .     S
Er19     V65    8.787   1_565     S
Er20     V43    8.787   1_556     S
Er20     V60    8.787   .     S
Er20     V66    8.787   1_565     S
Er21     V46    8.787   .     S
Er21     V61    8.787   .     S
Er21     V71    8.787   .     S
Er22     V45    8.787   1_556     S
Er22     V62    8.787   .     S
Er22     V72    8.787   .     S
Er23     V48    8.787   .     S
Er23     V63    8.787   .     S
Er23     V69    8.787   1_565     S
Er24     V47    8.787   1_556     S
Er24     V64    8.787   .     S
Er24     V70    8.787   1_565     S
Er25     V33    8.787   .     S
Er25     V41    8.787   .     S
Er25     V49    8.787   .     S
Er26     V34    8.787   .     S
Er26     V42    8.787   .     S
Er26     V50    8.787   .     S
Er27     V35    8.787   .     S
Er27     V43    8.787   .     S
Er27     V51    8.787   .     S
Er28     V36    8.787   .     S
Er28     V44    8.787   .     S
Er28     V52    8.787   .     S
Er29     V37    8.787   .     S
Er29     V45    8.787   .     S
Er29     V53    8.787   .     S
Er30     V38    8.787   .     S
Er30     V46    8.787   .     S
Er30     V54    8.787   .     S
Er31     V39    8.787   .     S
Er31     V47    8.787   .     S
Er31     V55    8.787   .     S
Er32     V40    8.787   .     S
Er32     V48    8.787   .     S
Er32     V56    8.787   .     S
V33     V57    12.426   .     S
V33     V59    12.426   1_545     S
V33     Er5    8.787   1_455     S
V34     V58    12.426   .     S
V34     V60    12.426   1_545     S
V34     Er6    8.787   1_455     S
V35     V59    12.426   .     S
V35     V57    12.426   .     S
V35     Er7    8.787   1_455     S
V36     V60    12.426   .     S
V36     V58    12.426   .     S
V36     Er8    8.787   1_455     S
V37     V61    12.426   .     S
V37     V63    12.426   1_545     S
V38     V62    12.426   .     S
V38     V64    12.426   1_545     S
V39     V63    12.426   .     S
V39     V61    12.426   .     S
V40     V64    12.426   .     S
V40     V62    12.426   .     S
V41     V73    12.426   .     S
V41     V77    12.426   1_455     S
V41     Er18    8.787   1_554     S
V42     V74    12.426   .     S
V42     V78    12.426   1_455     S
V43     V75    12.426   .     S
V43     V79    12.426   1_455     S
V43     Er20    8.787   1_554     S
V44     V76    12.426   .     S
V44     V80    12.426   1_455     S
V45     V77    12.426   .     S
V45     V73    12.426   .     S
V45     Er22    8.787   1_554     S
V46     V78    12.426   .     S
V46     V74    12.426   .     S
V47     V79    12.426   .     S
V47     V75    12.426   .     S
V47     Er24    8.787   1_554     S
V48     V80    12.426   .     S
V48     V76    12.426   .     S
V49     V65    12.426   .     S
V49     V66    12.426   1_554     S
V49     Er11    8.787   1_545     S
V50     V66    12.426   .     S
V50     V65    12.426   .     S
V50     Er12    8.787   1_545     S
V51     V67    12.426   .     S
V51     V68    12.426   1_554     S
V52     V68    12.426   .     S
V52     V67    12.426   .     S
V53     V69    12.426   .     S
V53     V70    12.426   1_554     S
V53     Er15    8.787   1_545     S
V54     V70    12.426   .     S
V54     V69    12.426   .     S
V54     Er16    8.787   1_545     S
V55     V71    12.426   .     S
V55     V72    12.426   1_554     S
V56     V72    12.426   .     S
V56     V71    12.426   .     S
V57     Er13    8.787   1_455     S
V58     Er14    8.787   1_455     S
V59     V33    12.426   1_565     S
V59     Er15    8.787   1_455     S
V60     V34    12.426   1_565     S
V60     Er16    8.787   1_455     S
V63     V37    12.426   1_565     S
V64     V38    12.426   1_565     S
V65     Er19    8.787   1_545     S
V66     V49    12.426   1_556     S
V66     Er20    8.787   1_545     S
V68     V51    12.426   1_556     S
V69     Er23    8.787   1_545     S
V70     V53    12.426   1_556     S
V70     Er24    8.787   1_545     S
V72     V55    12.426   1_556     S
V73     Er2    8.787   1_554     S
V75     Er4    8.787   1_554     S
V77     V41    12.426   1_655     S
V77     Er6    8.787   1_554     S
V78     V42    12.426   1_655     S
V79     V43    12.426   1_655     S
V79     Er8    8.787   1_554     S
V80     V44    12.426   1_655     S
