data_sse-e
_audit_creation_date              2019-12-31
_audit_creation_method            'Pymatgen'
_symmetry_space_group_name_H-M    'P1'
_symmetry_Int_Tables_number       1
loop_
_symmetry_equiv_pos_as_xyz
  x,y,z
_cell_length_a                    40.558
_cell_length_b                    40.558
_cell_length_c                    31.5818
_cell_angle_alpha                 90.0
_cell_angle_beta                 90.0
_cell_angle_gamma                 90.0
loop_
_atom_site_label
_atom_site_type_symbol
_atom_site_fract_x
_atom_site_fract_y
_atom_site_fract_z
V1     V     0.0   0.8257   0.0
V2     V     0.0   0.8257   0.5
V3     V     0.8257   0.0   0.0
V4     V     0.8257   0.0   0.5
V5     V     0.0   0.1743   0.0
V6     V     0.0   0.1743   0.5
V7     V     0.1743   0.0   0.0
V8     V     0.1743   0.0   0.5
Ti9     Ti     0.1744   0.6513   0.0
Ti10     Ti     0.1744   0.6513   0.5
Ti11     Ti     0.3487   0.8256   0.0
Ti12     Ti     0.3487   0.8256   0.5
Er13     Er     0.5   0.825   0.25
Er14     Er     0.5   0.825   0.75
Ti15     Ti     0.6513   0.8256   0.0
Ti16     Ti     0.6513   0.8256   0.5
Ti17     Ti     0.8256   0.6513   0.0
Ti18     Ti     0.8256   0.6513   0.5
Ti19     Ti     0.3487   0.1744   0.0
Ti20     Ti     0.3487   0.1744   0.5
Ti21     Ti     0.1744   0.3487   0.0
Ti22     Ti     0.1744   0.3487   0.5
Er23     Er     0.175   0.5   0.25
Er24     Er     0.175   0.5   0.75
Er25     Er     0.5   0.175   0.25
Er26     Er     0.5   0.175   0.75
Ti27     Ti     0.6513   0.1744   0.0
Ti28     Ti     0.6513   0.1744   0.5
Ti29     Ti     0.8256   0.3487   0.0
Ti30     Ti     0.8256   0.3487   0.5
Er31     Er     0.825   0.5   0.25
Er32     Er     0.825   0.5   0.75
loop_
_geom_bond_atom_site_label_1
_geom_bond_atom_site_label_2
_geom_bond_distance
_geom_bond_site_symmetry_2
_ccdc_geom_bond_type
V1     V7    10.0   1_565     S
V1     V3    10.0   1_465     S
V1     Ti9    10.0   .     S
V1     Ti17    10.0   1_455     S
V2     V8    10.0   1_565     S
V2     V4    10.0   1_465     S
V2     Ti10    10.0   .     S
V2     Ti18    10.0   1_455     S
V3     V5    10.0   1_655     S
V3     V1    10.0   1_645     S
V3     Ti27    10.0   .     S
V3     Ti15    10.0   1_545     S
V4     V6    10.0   1_655     S
V4     V2    10.0   1_645     S
V4     Ti28    10.0   .     S
V4     Ti16    10.0   1_545     S
V5     V3    10.0   1_455     S
V5     V7    10.0   .     S
V5     Ti21    10.0   .     S
V5     Ti29    10.0   1_455     S
V6     V4    10.0   1_455     S
V6     V8    10.0   .     S
V6     Ti22    10.0   .     S
V6     Ti30    10.0   1_455     S
V7     V1    10.0   1_545     S
V7     Ti19    10.0   .     S
V7     Ti11    10.0   1_545     S
V8     V2    10.0   1_545     S
V8     Ti20    10.0   .     S
V8     Ti12    10.0   1_545     S
Ti9     Er24    10.0   1_554     S
Ti9     Er23    10.0   .     S
Ti9     Ti11    10.0   .     S
Ti10     Er23    10.0   .     S
Ti10     Er24    10.0   .     S
Ti10     Ti12    10.0   .     S
Ti11     Er13    10.0   .     S
Ti11     Er14    10.0   1_554     S
Ti11     V7    10.0   1_565     S
Ti12     Er14    10.0   .     S
Ti12     Er13    10.0   .     S
Ti12     V8    10.0   1_565     S
Er13     Ti16    10.0   .     S
Er13     Ti15    10.0   .     S
Er14     Ti11    10.0   1_556     S
Er14     Ti15    10.0   1_556     S
Er14     Ti16    10.0   .     S
Ti15     Er14    10.0   1_554     S
Ti15     Ti17    10.0   .     S
Ti15     V3    10.0   1_565     S
Ti16     Ti18    10.0   .     S
Ti16     V4    10.0   1_565     S
Ti17     Er31    10.0   .     S
Ti17     Er32    10.0   1_554     S
Ti17     V1    10.0   1_655     S
Ti18     Er32    10.0   .     S
Ti18     Er31    10.0   .     S
Ti18     V2    10.0   1_655     S
Ti19     Er26    10.0   1_554     S
Ti19     Er25    10.0   .     S
Ti19     Ti21    10.0   .     S
Ti20     Er25    10.0   .     S
Ti20     Er26    10.0   .     S
Ti20     Ti22    10.0   .     S
Ti21     Er23    10.0   .     S
Ti21     Er24    10.0   1_554     S
Ti22     Er24    10.0   .     S
Ti22     Er23    10.0   .     S
Er24     Ti9    10.0   1_556     S
Er24     Ti21    10.0   1_556     S
Er25     Ti27    10.0   .     S
Er25     Ti28    10.0   .     S
Er26     Ti19    10.0   1_556     S
Er26     Ti28    10.0   .     S
Er26     Ti27    10.0   1_556     S
Ti27     Er26    10.0   1_554     S
Ti27     Ti29    10.0   .     S
Ti28     Ti30    10.0   .     S
Ti29     Er32    10.0   1_554     S
Ti29     Er31    10.0   .     S
Ti29     V5    10.0   1_655     S
Ti30     Er31    10.0   .     S
Ti30     Er32    10.0   .     S
Ti30     V6    10.0   1_655     S
Er32     Ti17    10.0   1_556     S
Er32     Ti29    10.0   1_556     S
