data_sse
_audit_creation_date              2019-12-31
_audit_creation_method            'Pymatgen'
_symmetry_space_group_name_H-M    'P1'
_symmetry_Int_Tables_number       1
loop_
_symmetry_equiv_pos_as_xyz
  x,y,z
_cell_length_a                    30.0
_cell_length_b                    30.0
_cell_length_c                    29.9997
_cell_angle_alpha                 90.0
_cell_angle_beta                 90.0
_cell_angle_gamma                 90.0
loop_
_atom_site_label
_atom_site_type_symbol
_atom_site_fract_x
_atom_site_fract_y
_atom_site_fract_z
Er1     Er     0.5   0.8327   0.0
Er2     Er     0.5   0.8327   0.3333
Er3     Er     0.5   0.8327   0.6667
Er4     Er     0.8327   0.5   0.0
Er5     Er     0.8327   0.5   0.3333
Er6     Er     0.8327   0.5   0.6667
Er7     Er     0.5   0.1673   0.0
Er8     Er     0.5   0.1673   0.3333
Er9     Er     0.5   0.1673   0.6667
Er10     Er     0.1673   0.5   0.0
Er11     Er     0.1673   0.5   0.3333
Er12     Er     0.1673   0.5   0.6667
V13     V     0.8333   0.8333   0.0
V14     V     0.8333   0.8333   0.3333
V15     V     0.8333   0.8333   0.6667
V16     V     0.8333   0.1667   0.0
V17     V     0.8333   0.1667   0.3333
V18     V     0.8333   0.1667   0.6667
V19     V     0.1667   0.1667   0.0
V20     V     0.1667   0.1667   0.3333
V21     V     0.1667   0.1667   0.6667
V22     V     0.1667   0.8333   0.0
V23     V     0.1667   0.8333   0.3333
V24     V     0.1667   0.8333   0.6667
loop_
_geom_bond_atom_site_label_1
_geom_bond_atom_site_label_2
_geom_bond_distance
_geom_bond_site_symmetry_2
_ccdc_geom_bond_type
Er1     Er2    10.0   .     S
Er1     Er3    10.0   1_554     S
Er1     V13    10.0   .     S
Er1     V22    10.0   .     S
Er2     Er3    10.0   .     S
Er2     V14    10.0   .     S
Er2     V23    10.0   .     S
Er3     Er1    10.0   1_556     S
Er3     V15    10.0   .     S
Er3     V24    10.0   .     S
Er4     Er5    10.0   .     S
Er4     Er6    10.0   1_554     S
Er4     V13    10.0   .     S
Er4     V16    10.0   .     S
Er5     Er6    10.0   .     S
Er5     V14    10.0   .     S
Er5     V17    10.0   .     S
Er6     Er4    10.0   1_556     S
Er6     V15    10.0   .     S
Er6     V18    10.0   .     S
Er7     Er8    10.0   .     S
Er7     Er9    10.0   1_554     S
Er7     V16    10.0   .     S
Er7     V19    10.0   .     S
Er8     Er9    10.0   .     S
Er8     V17    10.0   .     S
Er8     V20    10.0   .     S
Er9     Er7    10.0   1_556     S
Er9     V18    10.0   .     S
Er9     V21    10.0   .     S
Er10     Er11    10.0   .     S
Er10     Er12    10.0   1_554     S
Er10     V19    10.0   .     S
Er10     V22    10.0   .     S
Er11     Er12    10.0   .     S
Er11     V20    10.0   .     S
Er11     V23    10.0   .     S
Er12     Er10    10.0   1_556     S
Er12     V21    10.0   .     S
Er12     V24    10.0   .     S
V13     V16    10.0   1_565     S
V13     V22    10.0   1_655     S
V14     V17    10.0   1_565     S
V14     V23    10.0   1_655     S
V15     V18    10.0   1_565     S
V15     V24    10.0   1_655     S
V16     V13    10.0   1_545     S
V16     V19    10.0   1_655     S
V17     V14    10.0   1_545     S
V17     V20    10.0   1_655     S
V18     V15    10.0   1_545     S
V18     V21    10.0   1_655     S
V19     V16    10.0   1_455     S
V19     V22    10.0   1_545     S
V20     V17    10.0   1_455     S
V20     V23    10.0   1_545     S
V21     V18    10.0   1_455     S
V21     V24    10.0   1_545     S
V22     V13    10.0   1_455     S
V22     V19    10.0   1_565     S
V23     V14    10.0   1_455     S
V23     V20    10.0   1_565     S
V24     V15    10.0   1_455     S
V24     V21    10.0   1_565     S
