data_ssf-e
_audit_creation_date              2019-12-31
_audit_creation_method            'Pymatgen'
_symmetry_space_group_name_H-M    'P1'
_symmetry_Int_Tables_number       1
loop_
_symmetry_equiv_pos_as_xyz
  x,y,z
_cell_length_a                    56.4293
_cell_length_b                    56.4293
_cell_length_c                    28.4208
_cell_angle_alpha                 90.0
_cell_angle_beta                 90.0
_cell_angle_gamma                 90.0
loop_
_atom_site_label
_atom_site_type_symbol
_atom_site_fract_x
_atom_site_fract_y
_atom_site_fract_z
Er1     Er     0.8747   0.7494   0.0
Er2     Er     0.8747   0.7494   0.5
Ti3     Ti     0.8768   0.6247   0.25
Ti4     Ti     0.8768   0.6247   0.75
Er5     Er     0.8747   0.2506   0.0
Er6     Er     0.8747   0.2506   0.5
Ti7     Ti     0.8768   0.3753   0.25
Ti8     Ti     0.8768   0.3753   0.75
Ce9     Ce     0.8771   0.5   0.0
Ce10     Ce     0.8771   0.5   0.5
Er11     Er     0.7494   0.8747   0.0
Er12     Er     0.7494   0.8747   0.5
Ti13     Ti     0.6247   0.8768   0.25
Ti14     Ti     0.6247   0.8768   0.75
Er15     Er     0.2506   0.8747   0.0
Er16     Er     0.2506   0.8747   0.5
Ti17     Ti     0.3753   0.8768   0.25
Ti18     Ti     0.3753   0.8768   0.75
Ce19     Ce     0.5   0.8771   0.0
Ce20     Ce     0.5   0.8771   0.5
Er21     Er     0.7494   0.1253   0.0
Er22     Er     0.7494   0.1253   0.5
Ti23     Ti     0.6247   0.1232   0.25
Ti24     Ti     0.6247   0.1232   0.75
Er25     Er     0.2506   0.1253   0.0
Er26     Er     0.2506   0.1253   0.5
Ti27     Ti     0.3753   0.1232   0.25
Ti28     Ti     0.3753   0.1232   0.75
Ce29     Ce     0.5   0.1229   0.0
Ce30     Ce     0.5   0.1229   0.5
Er31     Er     0.1253   0.7494   0.0
Er32     Er     0.1253   0.7494   0.5
Ti33     Ti     0.1232   0.6247   0.25
Ti34     Ti     0.1232   0.6247   0.75
Er35     Er     0.1253   0.2506   0.0
Er36     Er     0.1253   0.2506   0.5
Ti37     Ti     0.1232   0.3753   0.25
Ti38     Ti     0.1232   0.3753   0.75
Ce39     Ce     0.1229   0.5   0.0
Ce40     Ce     0.1229   0.5   0.5
V41     V     0.1253   0.0   0.0
V42     V     0.1253   0.0   0.5
V43     V     0.0   0.1253   0.0
V44     V     0.0   0.1253   0.5
V45     V     0.0   0.8747   0.0
V46     V     0.0   0.8747   0.5
V47     V     0.8747   0.0   0.0
V48     V     0.8747   0.0   0.5
loop_
_geom_bond_atom_site_label_1
_geom_bond_atom_site_label_2
_geom_bond_distance
_geom_bond_site_symmetry_2
_ccdc_geom_bond_type
Er1     Ti3    10.0   .     S
Er1     Ti4    10.0   1_554     S
Er1     V45    10.0   1_655     S
Er1     Er11    10.0   .     S
Er2     Ti4    10.0   .     S
Er2     Ti3    10.0   .     S
Er2     V46    10.0   1_655     S
Er2     Er12    10.0   .     S
Ti3     Ce9    10.0   .     S
Ti3     Ce10    10.0   .     S
Ti4     Er1    10.0   1_556     S
Ti4     Ce10    10.0   .     S
Ti4     Ce9    10.0   1_556     S
Er5     Ti8    10.0   1_554     S
Er5     Ti7    10.0   .     S
Er5     Er21    10.0   .     S
Er5     V43    10.0   1_655     S
Er6     Ti7    10.0   .     S
Er6     Ti8    10.0   .     S
Er6     Er22    10.0   .     S
Er6     V44    10.0   1_655     S
Ti7     Ce10    10.0   .     S
Ti7     Ce9    10.0   .     S
Ti8     Er5    10.0   1_556     S
Ti8     Ce9    10.0   1_556     S
Ti8     Ce10    10.0   .     S
Ce9     Ti8    10.0   1_554     S
Ce9     Ti4    10.0   1_554     S
Er11     Ti14    10.0   1_554     S
Er11     Ti13    10.0   .     S
Er11     V47    10.0   1_565     S
Er12     Ti13    10.0   .     S
Er12     Ti14    10.0   .     S
Er12     V48    10.0   1_565     S
Ti13     Ce20    10.0   .     S
Ti13     Ce19    10.0   .     S
Ti14     Er11    10.0   1_556     S
Ti14     Ce19    10.0   1_556     S
Ti14     Ce20    10.0   .     S
Er15     Ti17    10.0   .     S
Er15     Ti18    10.0   1_554     S
Er15     Er31    10.0   .     S
Er15     V41    10.0   1_565     S
Er16     Ti18    10.0   .     S
Er16     Ti17    10.0   .     S
Er16     Er32    10.0   .     S
Er16     V42    10.0   1_565     S
Ti17     Ce19    10.0   .     S
Ti17     Ce20    10.0   .     S
Ti18     Er15    10.0   1_556     S
Ti18     Ce20    10.0   .     S
Ti18     Ce19    10.0   1_556     S
Ce19     Ti14    10.0   1_554     S
Ce19     Ti18    10.0   1_554     S
Er21     Ti23    10.0   .     S
Er21     Ti24    10.0   1_554     S
Er21     V47    10.0   .     S
Er22     Ti24    10.0   .     S
Er22     Ti23    10.0   .     S
Er22     V48    10.0   .     S
Ti23     Ce29    10.0   .     S
Ti23     Ce30    10.0   .     S
Ti24     Er21    10.0   1_556     S
Ti24     Ce30    10.0   .     S
Ti24     Ce29    10.0   1_556     S
Er25     Ti28    10.0   1_554     S
Er25     Ti27    10.0   .     S
Er25     Er35    10.0   .     S
Er25     V41    10.0   .     S
Er26     Ti27    10.0   .     S
Er26     Ti28    10.0   .     S
Er26     Er36    10.0   .     S
Er26     V42    10.0   .     S
Ti27     Ce30    10.0   .     S
Ti27     Ce29    10.0   .     S
Ti28     Er25    10.0   1_556     S
Ti28     Ce29    10.0   1_556     S
Ti28     Ce30    10.0   .     S
Ce29     Ti28    10.0   1_554     S
Ce29     Ti24    10.0   1_554     S
Er31     Ti34    10.0   1_554     S
Er31     Ti33    10.0   .     S
Er31     V45    10.0   .     S
Er32     Ti33    10.0   .     S
Er32     Ti34    10.0   .     S
Er32     V46    10.0   .     S
Ti33     Ce40    10.0   .     S
Ti33     Ce39    10.0   .     S
Ti34     Er31    10.0   1_556     S
Ti34     Ce39    10.0   1_556     S
Ti34     Ce40    10.0   .     S
Er35     Ti37    10.0   .     S
Er35     Ti38    10.0   1_554     S
Er35     V43    10.0   .     S
Er36     Ti38    10.0   .     S
Er36     Ti37    10.0   .     S
Er36     V44    10.0   .     S
Ti37     Ce39    10.0   .     S
Ti37     Ce40    10.0   .     S
Ti38     Er35    10.0   1_556     S
Ti38     Ce40    10.0   .     S
Ti38     Ce39    10.0   1_556     S
Ce39     Ti34    10.0   1_554     S
Ce39     Ti38    10.0   1_554     S
V41     Er15    10.0   1_545     S
V41     V45    10.0   1_545     S
V41     V43    10.0   .     S
V42     Er16    10.0   1_545     S
V42     V46    10.0   1_545     S
V42     V44    10.0   .     S
V43     Er5    10.0   1_455     S
V43     V47    10.0   1_455     S
V44     Er6    10.0   1_455     S
V44     V48    10.0   1_455     S
V45     V41    10.0   1_565     S
V45     Er1    10.0   1_455     S
V45     V47    10.0   1_465     S
V46     V42    10.0   1_565     S
V46     Er2    10.0   1_455     S
V46     V48    10.0   1_465     S
V47     V43    10.0   1_655     S
V47     Er11    10.0   1_545     S
V47     V45    10.0   1_645     S
V48     V44    10.0   1_655     S
V48     Er12    10.0   1_545     S
V48     V46    10.0   1_645     S
