data_ssm
_audit_creation_date              2019-12-31
_audit_creation_method            'Pymatgen'
_symmetry_space_group_name_H-M    'P1'
_symmetry_Int_Tables_number       1
loop_
_symmetry_equiv_pos_as_xyz
  x,y,z
_cell_length_a                    28.2846
_cell_length_b                    28.2846
_cell_length_c                    136.416
_cell_angle_alpha                 90.0
_cell_angle_beta                 90.0
_cell_angle_gamma                 90.0
loop_
_atom_site_label
_atom_site_type_symbol
_atom_site_fract_x
_atom_site_fract_y
_atom_site_fract_z
Er1     Er     0.1394   0.2663   0.3491
Er2     Er     0.1394   0.7663   0.3491
Er3     Er     0.6394   0.2663   0.3491
Er4     Er     0.6394   0.7663   0.3491
V5     V     0.125   0.25   0.2759
V6     V     0.125   0.75   0.2759
V7     V     0.625   0.25   0.2759
V8     V     0.625   0.75   0.2759
Er9     Er     0.3606   0.4837   0.3491
Er10     Er     0.3606   0.9837   0.3491
Er11     Er     0.8606   0.4837   0.3491
Er12     Er     0.8606   0.9837   0.3491
V13     V     0.375   0.0   0.2759
V14     V     0.375   0.5   0.2759
V15     V     0.875   0.0   0.2759
V16     V     0.875   0.5   0.2759
V17     V     0.125   0.0   0.4741
V18     V     0.125   0.5   0.4741
V19     V     0.625   0.0   0.4741
V20     V     0.625   0.5   0.4741
Er21     Er     0.1087   0.0144   0.4009
Er22     Er     0.1087   0.5144   0.4009
Er23     Er     0.6087   0.0144   0.4009
Er24     Er     0.6087   0.5144   0.4009
V25     V     0.375   0.25   0.4741
V26     V     0.375   0.75   0.4741
V27     V     0.875   0.25   0.4741
V28     V     0.875   0.75   0.4741
Er29     Er     0.3913   0.2356   0.4009
Er30     Er     0.3913   0.7356   0.4009
Er31     Er     0.8913   0.2356   0.4009
Er32     Er     0.8913   0.7356   0.4009
Er33     Er     0.1413   0.2356   0.0991
Er34     Er     0.1413   0.7356   0.0991
Er35     Er     0.6413   0.2356   0.0991
Er36     Er     0.6413   0.7356   0.0991
V37     V     0.125   0.25   0.0259
V38     V     0.125   0.75   0.0259
V39     V     0.625   0.25   0.0259
V40     V     0.625   0.75   0.0259
Er41     Er     0.3587   0.0144   0.0991
Er42     Er     0.3587   0.5144   0.0991
Er43     Er     0.8587   0.0144   0.0991
Er44     Er     0.8587   0.5144   0.0991
V45     V     0.375   0.0   0.0259
V46     V     0.375   0.5   0.0259
V47     V     0.875   0.0   0.0259
V48     V     0.875   0.5   0.0259
V49     V     0.125   0.0   0.2241
V50     V     0.125   0.5   0.2241
V51     V     0.625   0.0   0.2241
V52     V     0.625   0.5   0.2241
Er53     Er     0.1106   0.4837   0.1509
Er54     Er     0.1106   0.9837   0.1509
Er55     Er     0.6106   0.4837   0.1509
Er56     Er     0.6106   0.9837   0.1509
V57     V     0.375   0.25   0.2241
V58     V     0.375   0.75   0.2241
V59     V     0.875   0.25   0.2241
V60     V     0.875   0.75   0.2241
Er61     Er     0.3894   0.2663   0.1509
Er62     Er     0.3894   0.7663   0.1509
Er63     Er     0.8894   0.2663   0.1509
Er64     Er     0.8894   0.7663   0.1509
Er65     Er     0.3587   0.2644   0.9009
Er66     Er     0.3587   0.7644   0.9009
Er67     Er     0.8587   0.2644   0.9009
Er68     Er     0.8587   0.7644   0.9009
V69     V     0.375   0.25   0.9741
V70     V     0.375   0.75   0.9741
V71     V     0.875   0.25   0.9741
V72     V     0.875   0.75   0.9741
Er73     Er     0.1413   0.4856   0.9009
Er74     Er     0.1413   0.9856   0.9009
Er75     Er     0.6413   0.4856   0.9009
Er76     Er     0.6413   0.9856   0.9009
V77     V     0.125   0.0   0.9741
V78     V     0.125   0.5   0.9741
V79     V     0.625   0.0   0.9741
V80     V     0.625   0.5   0.9741
V81     V     0.375   0.0   0.7759
V82     V     0.375   0.5   0.7759
V83     V     0.875   0.0   0.7759
V84     V     0.875   0.5   0.7759
Er85     Er     0.3894   0.0163   0.8491
Er86     Er     0.3894   0.5163   0.8491
Er87     Er     0.8894   0.0163   0.8491
Er88     Er     0.8894   0.5163   0.8491
V89     V     0.125   0.25   0.7759
V90     V     0.125   0.75   0.7759
V91     V     0.625   0.25   0.7759
V92     V     0.625   0.75   0.7759
Er93     Er     0.1106   0.2337   0.8491
Er94     Er     0.1106   0.7337   0.8491
Er95     Er     0.6106   0.2337   0.8491
Er96     Er     0.6106   0.7337   0.8491
Er97     Er     0.3606   0.2337   0.6509
Er98     Er     0.3606   0.7337   0.6509
Er99     Er     0.8606   0.2337   0.6509
Er100     Er     0.8606   0.7337   0.6509
V101     V     0.375   0.25   0.7241
V102     V     0.375   0.75   0.7241
V103     V     0.875   0.25   0.7241
V104     V     0.875   0.75   0.7241
V105     V     0.125   0.0   0.7241
V106     V     0.125   0.5   0.7241
V107     V     0.625   0.0   0.7241
V108     V     0.625   0.5   0.7241
Er109     Er     0.1394   0.0163   0.6509
Er110     Er     0.1394   0.5163   0.6509
Er111     Er     0.6394   0.0163   0.6509
Er112     Er     0.6394   0.5163   0.6509
V113     V     0.125   0.25   0.5259
V114     V     0.125   0.75   0.5259
V115     V     0.625   0.25   0.5259
V116     V     0.625   0.75   0.5259
Er117     Er     0.1087   0.2644   0.5991
Er118     Er     0.1087   0.7644   0.5991
Er119     Er     0.6087   0.2644   0.5991
Er120     Er     0.6087   0.7644   0.5991
V121     V     0.375   0.0   0.5259
V122     V     0.375   0.5   0.5259
V123     V     0.875   0.0   0.5259
V124     V     0.875   0.5   0.5259
Er125     Er     0.3913   0.4856   0.5991
Er126     Er     0.3913   0.9856   0.5991
Er127     Er     0.8913   0.4856   0.5991
Er128     Er     0.8913   0.9856   0.5991
loop_
_geom_bond_atom_site_label_1
_geom_bond_atom_site_label_2
_geom_bond_distance
_geom_bond_site_symmetry_2
_ccdc_geom_bond_type
Er1     V5    9.999   .     S
Er1     Er11    10.0   1_455     S
Er1     Er22    10.001   .     S
Er1     Er31    10.001   1_455     S
Er2     V6    9.999   .     S
Er2     Er12    10.0   1_455     S
Er2     Er21    10.001   1_565     S
Er2     Er32    10.001   1_455     S
Er3     V7    9.999   .     S
Er3     Er9    10.0   .     S
Er3     Er24    10.001   .     S
Er3     Er29    10.001   .     S
Er4     V8    9.999   .     S
Er4     Er10    10.0   .     S
Er4     Er23    10.001   1_565     S
Er4     Er30    10.001   .     S
V5     V59    10.001   1_455     S
V5     V49    10.001   .     S
V5     V57    10.001   .     S
V5     V15    10.0   1_455     S
V5     V13    10.0   .     S
V6     V60    10.001   1_455     S
V6     V50    10.001   .     S
V6     V58    10.001   .     S
V6     V16    10.0   1_455     S
V6     V14    10.0   .     S
V7     V57    10.001   .     S
V7     V51    10.001   .     S
V7     V59    10.001   .     S
V7     V13    10.0   .     S
V7     V15    10.0   .     S
V8     V58    10.001   .     S
V8     V52    10.001   .     S
V8     V60    10.001   .     S
V8     V14    10.0   .     S
V8     V16    10.0   .     S
Er9     V14    9.999   .     S
Er9     Er29    10.001   .     S
Er9     Er24    10.001   .     S
Er10     V13    9.999   1_565     S
Er10     Er30    10.001   .     S
Er10     Er23    10.001   1_565     S
Er11     V16    9.999   .     S
Er11     Er1    10.0   1_655     S
Er11     Er31    10.001   .     S
Er11     Er22    10.001   1_655     S
Er12     V15    9.999   1_565     S
Er12     Er2    10.0   1_655     S
Er12     Er32    10.001   .     S
Er12     Er21    10.001   1_665     S
V13     V57    10.001   .     S
V13     V51    10.001   .     S
V13     V49    10.001   .     S
V13     Er10    9.999   1_545     S
V14     V58    10.001   .     S
V14     V52    10.001   .     S
V14     V50    10.001   .     S
V15     V59    10.001   .     S
V15     V49    10.001   1_655     S
V15     V51    10.001   .     S
V15     Er12    9.999   1_545     S
V15     V5    10.0   1_655     S
V16     V60    10.001   .     S
V16     V50    10.001   1_655     S
V16     V52    10.001   .     S
V16     V6    10.0   1_655     S
V17     Er21    9.999   .     S
V17     V26    10.0   1_545     S
V17     V25    10.0   .     S
V17     V113    10.001   .     S
V17     V121    10.001   .     S
V17     V114    10.001   1_545     S
V18     Er22    9.999   .     S
V18     V25    10.0   .     S
V18     V26    10.0   .     S
V18     V114    10.001   .     S
V18     V122    10.001   .     S
V18     V113    10.001   .     S
V19     Er23    9.999   .     S
V19     V28    10.0   1_545     S
V19     V27    10.0   .     S
V19     V115    10.001   .     S
V19     V123    10.001   .     S
V19     V116    10.001   1_545     S
V20     Er24    9.999   .     S
V20     V27    10.0   .     S
V20     V28    10.0   .     S
V20     V116    10.001   .     S
V20     V124    10.001   .     S
V20     V115    10.001   .     S
Er21     Er12    10.001   1_445     S
Er21     Er2    10.001   1_545     S
Er21     Er32    10.0   1_445     S
Er22     Er11    10.001   1_455     S
Er22     Er31    10.0   1_455     S
Er23     Er10    10.001   1_545     S
Er23     Er4    10.001   1_545     S
Er23     Er30    10.0   1_545     S
Er24     Er29    10.0   .     S
V25     Er29    9.999   .     S
V25     V113    10.001   .     S
V25     V122    10.001   .     S
V25     V121    10.001   .     S
V26     Er30    9.999   .     S
V26     V17    10.0   1_565     S
V26     V114    10.001   .     S
V26     V121    10.001   1_565     S
V26     V122    10.001   .     S
V27     Er31    9.999   .     S
V27     V115    10.001   .     S
V27     V124    10.001   .     S
V27     V123    10.001   .     S
V28     Er32    9.999   .     S
V28     V19    10.0   1_565     S
V28     V116    10.001   .     S
V28     V123    10.001   1_565     S
V28     V124    10.001   .     S
Er30     Er23    10.0   1_565     S
Er31     Er1    10.001   1_655     S
Er31     Er22    10.0   1_655     S
Er32     Er2    10.001   1_655     S
Er32     Er21    10.0   1_665     S
Er33     V37    9.999   .     S
Er33     Er42    10.0   .     S
Er33     Er61    10.001   .     S
Er33     Er53    10.001   .     S
Er34     V38    9.999   .     S
Er34     Er41    10.0   1_565     S
Er34     Er62    10.001   .     S
Er34     Er54    10.001   .     S
Er35     V39    9.999   .     S
Er35     Er44    10.0   .     S
Er35     Er63    10.001   .     S
Er35     Er55    10.001   .     S
Er36     V40    9.999   .     S
Er36     Er43    10.0   1_565     S
Er36     Er64    10.001   .     S
Er36     Er56    10.001   .     S
V37     V78    10.001   1_554     S
V37     V77    10.001   1_554     S
V37     V71    10.001   1_454     S
V37     V48    10.0   1_455     S
V37     V47    10.0   1_455     S
V38     V77    10.001   1_564     S
V38     V78    10.001   1_554     S
V38     V72    10.001   1_454     S
V38     V47    10.0   1_465     S
V38     V48    10.0   1_455     S
V39     V80    10.001   1_554     S
V39     V79    10.001   1_554     S
V39     V69    10.001   1_554     S
V39     V46    10.0   .     S
V39     V45    10.0   .     S
V40     V79    10.001   1_564     S
V40     V80    10.001   1_554     S
V40     V70    10.001   1_554     S
V40     V45    10.0   1_565     S
V40     V46    10.0   .     S
Er41     V45    9.999   .     S
Er41     Er34    10.0   1_545     S
Er41     Er62    10.001   1_545     S
Er41     Er54    10.001   1_545     S
Er42     V46    9.999   .     S
Er42     Er61    10.001   .     S
Er42     Er53    10.001   .     S
Er43     V47    9.999   .     S
Er43     Er36    10.0   1_545     S
Er43     Er64    10.001   1_545     S
Er43     Er56    10.001   1_545     S
Er44     V48    9.999   .     S
Er44     Er63    10.001   .     S
Er44     Er55    10.001   .     S
V45     V69    10.001   1_554     S
V45     V79    10.001   1_554     S
V45     V70    10.001   1_544     S
V45     V40    10.0   1_545     S
V46     V70    10.001   1_554     S
V46     V80    10.001   1_554     S
V46     V69    10.001   1_554     S
V47     V71    10.001   1_554     S
V47     V77    10.001   1_654     S
V47     V72    10.001   1_544     S
V47     V38    10.0   1_645     S
V47     V37    10.0   1_655     S
V48     V72    10.001   1_554     S
V48     V78    10.001   1_654     S
V48     V71    10.001   1_554     S
V48     V37    10.0   1_655     S
V48     V38    10.0   1_655     S
V49     V15    10.001   1_455     S
V49     Er54    9.999   1_545     S
V49     V57    10.0   .     S
V49     V59    10.0   1_455     S
V50     V16    10.001   1_455     S
V50     Er53    9.999   .     S
V50     V58    10.0   .     S
V50     V60    10.0   1_455     S
V51     Er56    9.999   1_545     S
V51     V59    10.0   .     S
V51     V57    10.0   .     S
V52     Er55    9.999   .     S
V52     V60    10.0   .     S
V52     V58    10.0   .     S
Er53     Er61    10.0   .     S
Er54     Er41    10.001   1_565     S
Er54     V49    9.999   1_565     S
Er54     Er62    10.0   .     S
Er55     Er63    10.0   .     S
Er56     Er43    10.001   1_565     S
Er56     V51    9.999   1_565     S
Er56     Er64    10.0   .     S
V57     Er61    9.999   .     S
V58     Er62    9.999   .     S
V59     V5    10.001   1_655     S
V59     Er63    9.999   .     S
V59     V49    10.0   1_655     S
V60     V6    10.001   1_655     S
V60     Er64    9.999   .     S
V60     V50    10.0   1_655     S
Er62     Er41    10.001   1_565     S
Er64     Er43    10.001   1_565     S
Er65     V69    9.999   .     S
Er65     Er74    10.0   1_545     S
Er65     Er93    10.001   .     S
Er65     Er85    10.001   .     S
Er66     V70    9.999   .     S
Er66     Er73    10.0   .     S
Er66     Er94    10.001   .     S
Er66     Er86    10.001   .     S
Er67     V71    9.999   .     S
Er67     Er76    10.0   1_545     S
Er67     Er95    10.001   .     S
Er67     Er87    10.001   .     S
Er68     V72    9.999   .     S
Er68     Er75    10.0   .     S
Er68     Er96    10.001   .     S
Er68     Er88    10.001   .     S
V69     V45    10.001   1_556     S
V69     V46    10.001   1_556     S
V69     V39    10.001   1_556     S
V69     V79    10.0   .     S
V69     V80    10.0   .     S
V70     V46    10.001   1_556     S
V70     V45    10.001   1_566     S
V70     V40    10.001   1_556     S
V70     V80    10.0   .     S
V70     V79    10.0   1_565     S
V71     V47    10.001   1_556     S
V71     V48    10.001   1_556     S
V71     V37    10.001   1_656     S
V71     V77    10.0   1_655     S
V71     V78    10.0   1_655     S
V72     V48    10.001   1_556     S
V72     V47    10.001   1_566     S
V72     V38    10.001   1_656     S
V72     V78    10.0   1_655     S
V72     V77    10.0   1_665     S
Er73     V78    9.999   .     S
Er73     Er94    10.001   .     S
Er73     Er86    10.001   .     S
Er74     V77    9.999   1_565     S
Er74     Er65    10.0   1_565     S
Er74     Er93    10.001   1_565     S
Er74     Er85    10.001   1_565     S
Er75     V80    9.999   .     S
Er75     Er96    10.001   .     S
Er75     Er88    10.001   .     S
Er76     V79    9.999   1_565     S
Er76     Er67    10.0   1_565     S
Er76     Er95    10.001   1_565     S
Er76     Er87    10.001   1_565     S
V77     V47    10.001   1_456     S
V77     V38    10.001   1_546     S
V77     V37    10.001   1_556     S
V77     Er74    9.999   1_545     S
V77     V71    10.0   1_455     S
V77     V72    10.0   1_445     S
V78     V48    10.001   1_456     S
V78     V37    10.001   1_556     S
V78     V38    10.001   1_556     S
V78     V72    10.0   1_455     S
V78     V71    10.0   1_455     S
V79     V45    10.001   1_556     S
V79     V40    10.001   1_546     S
V79     V39    10.001   1_556     S
V79     Er76    9.999   1_545     S
V79     V70    10.0   1_545     S
V80     V46    10.001   1_556     S
V80     V39    10.001   1_556     S
V80     V40    10.001   1_556     S
V81     Er85    9.999   .     S
V81     V92    10.0   1_545     S
V81     V90    10.0   1_545     S
V81     V107    10.001   .     S
V81     V102    10.001   1_545     S
V81     V105    10.001   .     S
V82     Er86    9.999   .     S
V82     V91    10.0   .     S
V82     V89    10.0   .     S
V82     V108    10.001   .     S
V82     V101    10.001   .     S
V82     V106    10.001   .     S
V83     Er87    9.999   .     S
V83     V90    10.0   1_645     S
V83     V92    10.0   1_545     S
V83     V105    10.001   1_655     S
V83     V104    10.001   1_545     S
V83     V107    10.001   .     S
V84     Er88    9.999   .     S
V84     V89    10.0   1_655     S
V84     V91    10.0   .     S
V84     V106    10.001   1_655     S
V84     V103    10.001   .     S
V84     V108    10.001   .     S
Er85     Er74    10.001   1_545     S
Er85     Er93    10.0   .     S
Er86     Er94    10.0   .     S
Er87     Er76    10.001   1_545     S
Er87     Er95    10.0   .     S
Er88     Er96    10.0   .     S
V89     Er93    9.999   .     S
V89     V84    10.0   1_455     S
V89     V106    10.001   .     S
V89     V103    10.001   1_455     S
V89     V101    10.001   .     S
V90     Er94    9.999   .     S
V90     V83    10.0   1_465     S
V90     V81    10.0   1_565     S
V90     V105    10.001   1_565     S
V90     V104    10.001   1_455     S
V90     V102    10.001   .     S
V91     Er95    9.999   .     S
V91     V108    10.001   .     S
V91     V101    10.001   .     S
V91     V103    10.001   .     S
V92     Er96    9.999   .     S
V92     V81    10.0   1_565     S
V92     V83    10.0   1_565     S
V92     V107    10.001   1_565     S
V92     V102    10.001   .     S
V92     V104    10.001   .     S
Er93     Er74    10.001   1_545     S
Er95     Er76    10.001   1_545     S
Er97     V101    9.999   .     S
Er97     Er111    10.0   .     S
Er97     Er119    10.001   .     S
Er97     Er126    10.001   1_545     S
Er98     V102    9.999   .     S
Er98     Er112    10.0   .     S
Er98     Er120    10.001   .     S
Er98     Er125    10.001   .     S
Er99     V103    9.999   .     S
Er99     Er109    10.0   1_655     S
Er99     Er117    10.001   1_655     S
Er99     Er128    10.001   1_545     S
Er100     V104    9.999   .     S
Er100     Er110    10.0   1_655     S
Er100     Er118    10.001   1_655     S
Er100     Er127    10.001   .     S
V101     V108    10.0   .     S
V101     V106    10.0   .     S
V102     V81    10.001   1_565     S
V102     V107    10.0   1_565     S
V102     V105    10.0   1_565     S
V103     V89    10.001   1_655     S
V103     V106    10.0   1_655     S
V103     V108    10.0   .     S
V104     V83    10.001   1_565     S
V104     V90    10.001   1_655     S
V104     V105    10.0   1_665     S
V104     V107    10.0   1_565     S
V105     V83    10.001   1_455     S
V105     V90    10.001   1_545     S
V105     Er109    9.999   .     S
V105     V104    10.0   1_445     S
V105     V102    10.0   1_545     S
V106     V84    10.001   1_455     S
V106     Er110    9.999   .     S
V106     V103    10.0   1_455     S
V107     V92    10.001   1_545     S
V107     Er111    9.999   .     S
V107     V102    10.0   1_545     S
V107     V104    10.0   1_545     S
V108     Er112    9.999   .     S
Er109     Er99    10.0   1_455     S
Er109     Er128    10.001   1_445     S
Er109     Er117    10.001   .     S
Er110     Er100    10.0   1_455     S
Er110     Er127    10.001   1_455     S
Er110     Er118    10.001   .     S
Er111     Er126    10.001   1_545     S
Er111     Er119    10.001   .     S
Er112     Er125    10.001   .     S
Er112     Er120    10.001   .     S
V113     Er117    9.999   .     S
V113     V121    10.0   .     S
V113     V122    10.0   .     S
V114     V17    10.001   1_565     S
V114     Er118    9.999   .     S
V114     V122    10.0   .     S
V114     V121    10.0   1_565     S
V115     Er119    9.999   .     S
V115     V123    10.0   .     S
V115     V124    10.0   .     S
V116     V19    10.001   1_565     S
V116     Er120    9.999   .     S
V116     V124    10.0   .     S
V116     V123    10.0   1_565     S
Er117     Er99    10.001   1_455     S
Er117     Er128    10.0   1_445     S
Er118     Er100    10.001   1_455     S
Er118     Er127    10.0   1_455     S
Er119     Er126    10.0   1_545     S
Er120     Er125    10.0   .     S
V121     V26    10.001   1_545     S
V121     Er126    9.999   1_545     S
V121     V114    10.0   1_545     S
V122     Er125    9.999   .     S
V123     V28    10.001   1_545     S
V123     Er128    9.999   1_545     S
V123     V116    10.0   1_545     S
V124     Er127    9.999   .     S
Er126     Er111    10.001   1_565     S
Er126     Er97    10.001   1_565     S
Er126     V121    9.999   1_565     S
Er126     Er119    10.0   1_565     S
Er127     Er110    10.001   1_655     S
Er127     Er118    10.0   1_655     S
Er128     Er109    10.001   1_665     S
Er128     Er99    10.001   1_565     S
Er128     V123    9.999   1_565     S
Er128     Er117    10.0   1_665     S
