data_sta
_audit_creation_date              2019-12-31
_audit_creation_method            'Pymatgen'
_symmetry_space_group_name_H-M    'P1'
_symmetry_Int_Tables_number       1
loop_
_symmetry_equiv_pos_as_xyz
  x,y,z
_cell_length_a                    28.2852
_cell_length_b                    28.2852
_cell_length_c                    34.6387
_cell_angle_alpha                 90.0
_cell_angle_beta                 90.0
_cell_angle_gamma                 120.0
loop_
_atom_site_label
_atom_site_type_symbol
_atom_site_fract_x
_atom_site_fract_y
_atom_site_fract_z
Er1     Er     0.3333   0.1667   0.9167
Er2     Er     0.3333   0.6667   0.9167
Er3     Er     0.8333   0.1667   0.9167
Er4     Er     0.8333   0.6667   0.9167
Er5     Er     0.3333   0.1667   0.5833
Er6     Er     0.3333   0.6667   0.5833
Er7     Er     0.8333   0.1667   0.5833
Er8     Er     0.8333   0.6667   0.5833
V9     V     0.0   0.0   0.75
V10     V     1.0   0.5   0.75
V11     V     0.5   0.0   0.75
V12     V     0.5   0.5   0.75
Er13     Er     0.1667   0.3333   0.4167
Er14     Er     0.1667   0.8333   0.4167
Er15     Er     0.6667   0.3333   0.4167
Er16     Er     0.6667   0.8333   0.4167
Er17     Er     0.1667   0.3333   0.0833
Er18     Er     0.1667   0.8333   0.0833
Er19     Er     0.6667   0.3333   0.0833
Er20     Er     0.6667   0.8333   0.0833
V21     V     0.0   0.0   0.25
V22     V     1.0   0.5   0.25
V23     V     0.5   0.0   0.25
V24     V     0.5   0.5   0.25
loop_
_geom_bond_atom_site_label_1
_geom_bond_atom_site_label_2
_geom_bond_distance
_geom_bond_site_symmetry_2
_ccdc_geom_bond_type
Er1     V12    10.0   .     S
Er1     V9    10.0   .     S
Er1     V11    10.0   .     S
Er1     Er17    10.0   1_556     S
Er1     Er18    10.0   1_546     S
Er1     Er19    10.0   1_556     S
Er2     V11    10.0   1_565     S
Er2     V10    10.0   1_455     S
Er2     V12    10.0   .     S
Er2     Er18    10.0   1_556     S
Er2     Er17    10.0   1_556     S
Er2     Er20    10.0   1_556     S
Er3     V10    10.0   .     S
Er3     V11    10.0   .     S
Er3     V9    10.0   1_655     S
Er3     Er19    10.0   1_556     S
Er3     Er20    10.0   1_546     S
Er3     Er17    10.0   1_656     S
Er4     V9    10.0   1_665     S
Er4     V12    10.0   .     S
Er4     V10    10.0   .     S
Er4     Er20    10.0   1_556     S
Er4     Er19    10.0   1_556     S
Er4     Er18    10.0   1_656     S
Er5     V12    10.0   .     S
Er5     V9    10.0   .     S
Er5     V11    10.0   .     S
Er5     Er13    10.0   .     S
Er5     Er15    10.0   .     S
Er5     Er14    10.0   1_545     S
Er6     V11    10.0   1_565     S
Er6     V10    10.0   1_455     S
Er6     V12    10.0   .     S
Er6     Er14    10.0   .     S
Er6     Er16    10.0   .     S
Er6     Er13    10.0   .     S
Er7     V10    10.0   .     S
Er7     V11    10.0   .     S
Er7     V9    10.0   1_655     S
Er7     Er15    10.0   .     S
Er7     Er13    10.0   1_655     S
Er7     Er16    10.0   1_545     S
Er8     V9    10.0   1_665     S
Er8     V12    10.0   .     S
Er8     V10    10.0   .     S
Er8     Er16    10.0   .     S
Er8     Er14    10.0   1_655     S
Er8     Er15    10.0   .     S
V9     Er4    10.0   1_445     S
V9     Er3    10.0   1_455     S
V9     Er8    10.0   1_445     S
V9     Er7    10.0   1_455     S
V10     Er2    10.0   1_655     S
V10     Er6    10.0   1_655     S
V11     Er2    10.0   1_545     S
V11     Er6    10.0   1_545     S
Er13     V22    10.0   1_455     S
Er13     V21    10.0   .     S
Er13     V24    10.0   .     S
Er13     Er7    10.0   1_455     S
Er14     V21    10.0   1_565     S
Er14     V22    10.0   1_455     S
Er14     V23    10.0   1_565     S
Er14     Er8    10.0   1_455     S
Er14     Er5    10.0   1_565     S
Er15     V24    10.0   .     S
Er15     V23    10.0   .     S
Er15     V22    10.0   .     S
Er16     V23    10.0   1_565     S
Er16     V24    10.0   .     S
Er16     V21    10.0   1_665     S
Er16     Er7    10.0   1_565     S
Er17     V22    10.0   1_455     S
Er17     V24    10.0   .     S
Er17     V21    10.0   .     S
Er17     Er1    10.0   1_554     S
Er17     Er2    10.0   1_554     S
Er17     Er3    10.0   1_454     S
Er18     V21    10.0   1_565     S
Er18     V23    10.0   1_565     S
Er18     V22    10.0   1_455     S
Er18     Er2    10.0   1_554     S
Er18     Er1    10.0   1_564     S
Er18     Er4    10.0   1_454     S
Er19     V24    10.0   .     S
Er19     V22    10.0   .     S
Er19     V23    10.0   .     S
Er19     Er3    10.0   1_554     S
Er19     Er4    10.0   1_554     S
Er19     Er1    10.0   1_554     S
Er20     V23    10.0   1_565     S
Er20     V21    10.0   1_665     S
Er20     V24    10.0   .     S
Er20     Er4    10.0   1_554     S
Er20     Er3    10.0   1_564     S
Er20     Er2    10.0   1_554     S
V21     Er14    10.0   1_545     S
V21     Er16    10.0   1_445     S
V21     Er18    10.0   1_545     S
V21     Er20    10.0   1_445     S
V22     Er13    10.0   1_655     S
V22     Er14    10.0   1_655     S
V22     Er17    10.0   1_655     S
V22     Er18    10.0   1_655     S
V23     Er16    10.0   1_545     S
V23     Er14    10.0   1_545     S
V23     Er20    10.0   1_545     S
V23     Er18    10.0   1_545     S
