data_stb
_audit_creation_date              2019-12-31
_audit_creation_method            'Pymatgen'
_symmetry_space_group_name_H-M    'P1'
_symmetry_Int_Tables_number       1
loop_
_symmetry_equiv_pos_as_xyz
  x,y,z
_cell_length_a                    28.2658
_cell_length_b                    28.2658
_cell_length_c                    52.0296
_cell_angle_alpha                 90.0
_cell_angle_beta                 90.0
_cell_angle_gamma                 120.0
loop_
_atom_site_label
_atom_site_type_symbol
_atom_site_fract_x
_atom_site_fract_y
_atom_site_fract_z
Er1     Er     0.3333   0.1667   0.5556
Er2     Er     0.3333   0.6667   0.5556
Er3     Er     0.8333   0.1667   0.5556
Er4     Er     0.8333   0.6667   0.5556
Er5     Er     0.1667   0.3333   0.4444
Er6     Er     0.1667   0.8333   0.4444
Er7     Er     0.6667   0.3333   0.4444
Er8     Er     0.6667   0.8333   0.4444
V9     V     0.1667   0.3333   0.6667
V10     V     0.1667   0.8333   0.6667
V11     V     0.6667   0.3333   0.6667
V12     V     0.6667   0.8333   0.6667
Er13     Er     0.0   0.0   0.7778
Er14     Er     0.0   0.5   0.7778
Er15     Er     0.5   0.0   0.7778
Er16     Er     0.5   0.5   0.7778
Er17     Er     0.1667   0.3333   0.8889
Er18     Er     0.1667   0.8333   0.8889
Er19     Er     0.6667   0.3333   0.8889
Er20     Er     0.6667   0.8333   0.8889
Er21     Er     0.3333   0.1667   0.1111
Er22     Er     0.3333   0.6667   0.1111
Er23     Er     0.8333   0.1667   0.1111
Er24     Er     0.8333   0.6667   0.1111
Er25     Er     0.0   0.0   0.2222
Er26     Er     0.0   0.5   0.2222
Er27     Er     0.5   0.0   0.2222
Er28     Er     0.5   0.5   0.2222
V29     V     0.3333   0.1667   0.3333
V30     V     0.3333   0.6667   0.3333
V31     V     0.8333   0.1667   0.3333
V32     V     0.8333   0.6667   0.3333
V33     V     0.0   0.0   0.0
V34     V     0.0   0.5   0.0
V35     V     0.5   0.0   0.0
V36     V     0.5   0.5   0.0
loop_
_geom_bond_atom_site_label_1
_geom_bond_atom_site_label_2
_geom_bond_distance
_geom_bond_site_symmetry_2
_ccdc_geom_bond_type
Er1     Er7    10.0   .     S
Er1     Er6    10.0   1_545     S
Er1     Er5    10.0   .     S
Er1     V10    10.0   1_545     S
Er1     V11    10.0   .     S
Er1     V9    10.0   .     S
Er2     Er8    10.0   .     S
Er2     Er5    10.0   .     S
Er2     Er6    10.0   .     S
Er2     V9    10.0   .     S
Er2     V12    10.0   .     S
Er2     V10    10.0   .     S
Er3     Er5    10.0   1_655     S
Er3     Er8    10.0   1_545     S
Er3     Er7    10.0   .     S
Er3     V12    10.0   1_545     S
Er3     V9    10.0   1_655     S
Er3     V11    10.0   .     S
Er4     Er6    10.0   1_655     S
Er4     Er7    10.0   .     S
Er4     Er8    10.0   .     S
Er4     V11    10.0   .     S
Er4     V10    10.0   1_655     S
Er4     V12    10.0   .     S
Er5     Er3    10.0   1_455     S
Er5     V30    10.0   .     S
Er5     V31    10.0   1_455     S
Er5     V29    10.0   .     S
Er6     Er4    10.0   1_455     S
Er6     Er1    10.0   1_565     S
Er6     V29    10.0   1_565     S
Er6     V32    10.0   1_455     S
Er6     V30    10.0   .     S
Er7     V32    10.0   .     S
Er7     V29    10.0   .     S
Er7     V31    10.0   .     S
Er8     Er3    10.0   1_565     S
Er8     V31    10.0   1_565     S
Er8     V30    10.0   .     S
Er8     V32    10.0   .     S
V9     Er3    10.0   1_455     S
V9     Er14    10.0   .     S
V9     Er13    10.0   .     S
V9     Er16    10.0   .     S
V10     Er1    10.0   1_565     S
V10     Er4    10.0   1_455     S
V10     Er13    10.0   1_565     S
V10     Er14    10.0   .     S
V10     Er15    10.0   1_565     S
V11     Er16    10.0   .     S
V11     Er15    10.0   .     S
V11     Er14    10.0   1_655     S
V12     Er3    10.0   1_565     S
V12     Er15    10.0   1_565     S
V12     Er16    10.0   .     S
V12     Er13    10.0   1_665     S
Er13     Er20    10.0   1_445     S
Er13     Er17    10.0   .     S
Er13     Er18    10.0   1_545     S
Er13     V10    10.0   1_545     S
Er13     V12    10.0   1_445     S
Er14     Er19    10.0   1_455     S
Er14     Er18    10.0   .     S
Er14     Er17    10.0   .     S
Er14     V11    10.0   1_455     S
Er15     Er18    10.0   1_545     S
Er15     Er19    10.0   .     S
Er15     Er20    10.0   1_545     S
Er15     V12    10.0   1_545     S
Er15     V10    10.0   1_545     S
Er16     Er17    10.0   .     S
Er16     Er20    10.0   .     S
Er16     Er19    10.0   .     S
Er17     V34    10.0   1_556     S
Er17     V33    10.0   1_556     S
Er17     V36    10.0   1_556     S
Er18     Er15    10.0   1_565     S
Er18     Er13    10.0   1_565     S
Er18     V33    10.0   1_566     S
Er18     V34    10.0   1_556     S
Er18     V35    10.0   1_566     S
Er19     Er14    10.0   1_655     S
Er19     V36    10.0   1_556     S
Er19     V35    10.0   1_556     S
Er19     V34    10.0   1_656     S
Er20     Er13    10.0   1_665     S
Er20     Er15    10.0   1_565     S
Er20     V35    10.0   1_566     S
Er20     V36    10.0   1_556     S
Er20     V33    10.0   1_666     S
Er21     Er28    10.0   .     S
Er21     Er25    10.0   .     S
Er21     Er27    10.0   .     S
Er21     V35    10.0   .     S
Er21     V33    10.0   .     S
Er21     V36    10.0   .     S
Er22     Er27    10.0   1_565     S
Er22     Er26    10.0   .     S
Er22     Er28    10.0   .     S
Er22     V36    10.0   .     S
Er22     V34    10.0   .     S
Er22     V35    10.0   1_565     S
Er23     Er26    10.0   1_655     S
Er23     Er27    10.0   .     S
Er23     Er25    10.0   1_655     S
Er23     V33    10.0   1_655     S
Er23     V35    10.0   .     S
Er23     V34    10.0   1_655     S
Er24     Er25    10.0   1_665     S
Er24     Er28    10.0   .     S
Er24     Er26    10.0   1_655     S
Er24     V34    10.0   1_655     S
Er24     V36    10.0   .     S
Er24     V33    10.0   1_665     S
Er25     Er24    10.0   1_445     S
Er25     Er23    10.0   1_455     S
Er25     V31    10.0   1_455     S
Er25     V32    10.0   1_445     S
Er25     V29    10.0   .     S
Er26     Er23    10.0   1_455     S
Er26     Er24    10.0   1_455     S
Er26     V32    10.0   1_455     S
Er26     V31    10.0   1_455     S
Er26     V30    10.0   .     S
Er27     Er22    10.0   1_545     S
Er27     V29    10.0   .     S
Er27     V30    10.0   1_545     S
Er27     V31    10.0   .     S
Er28     V30    10.0   .     S
Er28     V29    10.0   .     S
Er28     V32    10.0   .     S
V29     Er6    10.0   1_545     S
V30     Er27    10.0   1_565     S
V31     Er8    10.0   1_545     S
V31     Er5    10.0   1_655     S
V31     Er25    10.0   1_655     S
V31     Er26    10.0   1_655     S
V32     Er6    10.0   1_655     S
V32     Er26    10.0   1_655     S
V32     Er25    10.0   1_665     S
V33     Er18    10.0   1_544     S
V33     Er17    10.0   1_554     S
V33     Er20    10.0   1_444     S
V33     Er23    10.0   1_455     S
V33     Er24    10.0   1_445     S
V34     Er17    10.0   1_554     S
V34     Er18    10.0   1_554     S
V34     Er19    10.0   1_454     S
V34     Er24    10.0   1_455     S
V34     Er23    10.0   1_455     S
V35     Er20    10.0   1_544     S
V35     Er19    10.0   1_554     S
V35     Er18    10.0   1_544     S
V35     Er22    10.0   1_545     S
V36     Er19    10.0   1_554     S
V36     Er20    10.0   1_554     S
V36     Er17    10.0   1_554     S
