data_stc
_audit_creation_date              2019-12-31
_audit_creation_method            'Pymatgen'
_symmetry_space_group_name_H-M    'P1'
_symmetry_Int_Tables_number       1
loop_
_symmetry_equiv_pos_as_xyz
  x,y,z
_cell_length_a                    28.277
_cell_length_b                    28.277
_cell_length_c                    69.3174
_cell_angle_alpha                 90.0
_cell_angle_beta                 90.0
_cell_angle_gamma                 120.0
loop_
_atom_site_label
_atom_site_type_symbol
_atom_site_fract_x
_atom_site_fract_y
_atom_site_fract_z
V1     V     0.1667   0.3333   0.375
V2     V     0.1667   0.8333   0.375
V3     V     0.6667   0.3333   0.375
V4     V     0.6667   0.8333   0.375
V5     V     0.0   0.0   0.2917
V6     V     0.0   0.5   0.2917
V7     V     0.5   0.0   0.2917
V8     V     0.5   0.5   0.2917
Er9     Er     0.1667   0.3333   0.7917
Er10     Er     0.1667   0.8333   0.7917
Er11     Er     0.6667   0.3333   0.7917
Er12     Er     0.6667   0.8333   0.7917
Er13     Er     0.0   0.0   0.875
Er14     Er     0.0   0.5   0.875
Er15     Er     0.5   0.0   0.875
Er16     Er     0.5   0.5   0.875
Er17     Er     0.1667   0.3333   0.5417
Er18     Er     0.1667   0.8333   0.5417
Er19     Er     0.6667   0.3333   0.5417
Er20     Er     0.6667   0.8333   0.5417
Er21     Er     0.3333   0.1667   0.4583
Er22     Er     0.3333   0.6667   0.4583
Er23     Er     0.8333   0.1667   0.4583
Er24     Er     0.8333   0.6667   0.4583
V25     V     0.3333   0.1667   0.625
V26     V     0.3333   0.6667   0.625
V27     V     0.8333   0.1667   0.625
V28     V     0.8333   0.6667   0.625
V29     V     0.0   0.0   0.7083
V30     V     0.0   0.5   0.7083
V31     V     0.5   0.0   0.7083
V32     V     0.5   0.5   0.7083
Er33     Er     0.3333   0.1667   0.2083
Er34     Er     0.3333   0.6667   0.2083
Er35     Er     0.8333   0.1667   0.2083
Er36     Er     0.8333   0.6667   0.2083
Er37     Er     0.0   0.0   0.125
Er38     Er     0.0   0.5   0.125
Er39     Er     0.5   0.0   0.125
Er40     Er     0.5   0.5   0.125
V41     V     0.1667   0.3333   0.9583
V42     V     0.1667   0.8333   0.9583
V43     V     0.6667   0.3333   0.9583
V44     V     0.6667   0.8333   0.9583
V45     V     0.3333   0.1667   0.0417
V46     V     0.3333   0.6667   0.0417
V47     V     0.8333   0.1667   0.0417
V48     V     0.8333   0.6667   0.0417
loop_
_geom_bond_atom_site_label_1
_geom_bond_atom_site_label_2
_geom_bond_distance
_geom_bond_site_symmetry_2
_ccdc_geom_bond_type
V1     Er21    10.0   .     S
V1     Er23    10.0   1_455     S
V1     Er22    10.0   .     S
V1     V8    10.0   .     S
V1     V5    10.0   .     S
V1     V6    10.0   .     S
V2     Er22    10.0   .     S
V2     Er24    10.0   1_455     S
V2     Er21    10.0   1_565     S
V2     V7    10.0   1_565     S
V2     V6    10.0   .     S
V2     V5    10.0   1_565     S
V3     Er23    10.0   .     S
V3     Er21    10.0   .     S
V3     Er24    10.0   .     S
V3     V6    10.0   1_655     S
V3     V7    10.0   .     S
V3     V8    10.0   .     S
V4     Er24    10.0   .     S
V4     Er22    10.0   .     S
V4     Er23    10.0   1_565     S
V4     V5    10.0   1_665     S
V4     V8    10.0   .     S
V4     V7    10.0   1_565     S
V5     Er33    10.0   .     S
V5     Er35    10.0   1_455     S
V5     V4    10.0   1_445     S
V5     V2    10.0   1_545     S
V5     Er36    10.0   1_445     S
V6     Er34    10.0   .     S
V6     Er36    10.0   1_455     S
V6     V3    10.0   1_455     S
V6     Er35    10.0   1_455     S
V7     Er35    10.0   .     S
V7     Er33    10.0   .     S
V7     V2    10.0   1_545     S
V7     V4    10.0   1_545     S
V7     Er34    10.0   1_545     S
V8     Er36    10.0   .     S
V8     Er34    10.0   .     S
V8     Er33    10.0   .     S
Er9     Er13    10.0   .     S
Er9     Er16    10.0   .     S
Er9     Er14    10.0   .     S
Er9     V29    10.0   .     S
Er9     V30    10.0   .     S
Er9     V32    10.0   .     S
Er10     Er14    10.0   .     S
Er10     Er15    10.0   1_565     S
Er10     Er13    10.0   1_565     S
Er10     V30    10.0   .     S
Er10     V29    10.0   1_565     S
Er10     V31    10.0   1_565     S
Er11     Er15    10.0   .     S
Er11     Er14    10.0   1_655     S
Er11     Er16    10.0   .     S
Er11     V31    10.0   .     S
Er11     V32    10.0   .     S
Er11     V30    10.0   1_655     S
Er12     Er16    10.0   .     S
Er12     Er13    10.0   1_665     S
Er12     Er15    10.0   1_565     S
Er12     V32    10.0   .     S
Er12     V31    10.0   1_565     S
Er12     V29    10.0   1_665     S
Er13     Er12    10.0   1_445     S
Er13     Er10    10.0   1_545     S
Er13     V41    10.0   .     S
Er13     V42    10.0   1_545     S
Er13     V44    10.0   1_445     S
Er14     Er11    10.0   1_455     S
Er14     V42    10.0   .     S
Er14     V41    10.0   .     S
Er14     V43    10.0   1_455     S
Er15     Er10    10.0   1_545     S
Er15     Er12    10.0   1_545     S
Er15     V43    10.0   .     S
Er15     V44    10.0   1_545     S
Er15     V42    10.0   1_545     S
Er16     V44    10.0   .     S
Er16     V43    10.0   .     S
Er16     V41    10.0   .     S
Er17     Er21    10.0   .     S
Er17     Er23    10.0   1_455     S
Er17     Er22    10.0   .     S
Er17     V25    10.0   .     S
Er17     V27    10.0   1_455     S
Er17     V26    10.0   .     S
Er18     Er22    10.0   .     S
Er18     Er24    10.0   1_455     S
Er18     Er21    10.0   1_565     S
Er18     V26    10.0   .     S
Er18     V28    10.0   1_455     S
Er18     V25    10.0   1_565     S
Er19     Er23    10.0   .     S
Er19     Er21    10.0   .     S
Er19     Er24    10.0   .     S
Er19     V27    10.0   .     S
Er19     V25    10.0   .     S
Er19     V28    10.0   .     S
Er20     Er24    10.0   .     S
Er20     Er22    10.0   .     S
Er20     Er23    10.0   1_565     S
Er20     V28    10.0   .     S
Er20     V26    10.0   .     S
Er20     V27    10.0   1_565     S
Er21     V2    10.0   1_545     S
Er21     Er18    10.0   1_545     S
Er23     V1    10.0   1_655     S
Er23     V4    10.0   1_545     S
Er23     Er17    10.0   1_655     S
Er23     Er20    10.0   1_545     S
Er24     V2    10.0   1_655     S
Er24     Er18    10.0   1_655     S
V25     Er18    10.0   1_545     S
V25     V29    10.0   .     S
V25     V32    10.0   .     S
V25     V31    10.0   .     S
V26     V30    10.0   .     S
V26     V31    10.0   1_565     S
V26     V32    10.0   .     S
V27     Er17    10.0   1_655     S
V27     Er20    10.0   1_545     S
V27     V31    10.0   .     S
V27     V30    10.0   1_655     S
V27     V29    10.0   1_655     S
V28     Er18    10.0   1_655     S
V28     V32    10.0   .     S
V28     V29    10.0   1_665     S
V28     V30    10.0   1_655     S
V29     Er10    10.0   1_545     S
V29     V28    10.0   1_445     S
V29     V27    10.0   1_455     S
V29     Er12    10.0   1_445     S
V30     V27    10.0   1_455     S
V30     V28    10.0   1_455     S
V30     Er11    10.0   1_455     S
V31     Er12    10.0   1_545     S
V31     V26    10.0   1_545     S
V31     Er10    10.0   1_545     S
Er33     Er37    10.0   .     S
Er33     Er40    10.0   .     S
Er33     Er39    10.0   .     S
Er34     V7    10.0   1_565     S
Er34     Er38    10.0   .     S
Er34     Er39    10.0   1_565     S
Er34     Er40    10.0   .     S
Er35     V5    10.0   1_655     S
Er35     V6    10.0   1_655     S
Er35     Er39    10.0   .     S
Er35     Er38    10.0   1_655     S
Er35     Er37    10.0   1_655     S
Er36     V6    10.0   1_655     S
Er36     V5    10.0   1_665     S
Er36     Er40    10.0   .     S
Er36     Er37    10.0   1_665     S
Er36     Er38    10.0   1_655     S
Er37     Er36    10.0   1_445     S
Er37     Er35    10.0   1_455     S
Er37     V45    10.0   .     S
Er37     V47    10.0   1_455     S
Er37     V48    10.0   1_445     S
Er38     Er35    10.0   1_455     S
Er38     Er36    10.0   1_455     S
Er38     V46    10.0   .     S
Er38     V48    10.0   1_455     S
Er38     V47    10.0   1_455     S
Er39     Er34    10.0   1_545     S
Er39     V47    10.0   .     S
Er39     V45    10.0   .     S
Er39     V46    10.0   1_545     S
Er40     V48    10.0   .     S
Er40     V46    10.0   .     S
Er40     V45    10.0   .     S
V41     V47    10.0   1_456     S
V41     V46    10.0   1_556     S
V41     V45    10.0   1_556     S
V42     Er13    10.0   1_565     S
V42     V48    10.0   1_456     S
V42     V45    10.0   1_566     S
V42     V46    10.0   1_556     S
V42     Er15    10.0   1_565     S
V43     V45    10.0   1_556     S
V43     V48    10.0   1_556     S
V43     V47    10.0   1_556     S
V43     Er14    10.0   1_655     S
V44     Er15    10.0   1_565     S
V44     V46    10.0   1_556     S
V44     V47    10.0   1_566     S
V44     V48    10.0   1_556     S
V44     Er13    10.0   1_665     S
V45     V43    10.0   1_554     S
V45     V42    10.0   1_544     S
V45     V41    10.0   1_554     S
V46     V44    10.0   1_554     S
V46     V41    10.0   1_554     S
V46     V42    10.0   1_554     S
V46     Er39    10.0   1_565     S
V47     Er37    10.0   1_655     S
V47     V41    10.0   1_654     S
V47     V44    10.0   1_544     S
V47     V43    10.0   1_554     S
V47     Er38    10.0   1_655     S
V48     Er38    10.0   1_655     S
V48     V42    10.0   1_654     S
V48     V43    10.0   1_554     S
V48     V44    10.0   1_554     S
V48     Er37    10.0   1_665     S
