data_ste
_audit_creation_date              2019-12-31
_audit_creation_method            'Pymatgen'
_symmetry_space_group_name_H-M    'P1'
_symmetry_Int_Tables_number       1
loop_
_symmetry_equiv_pos_as_xyz
  x,y,z
_cell_length_a                    28.2854
_cell_length_b                    28.2854
_cell_length_c                    46.1842
_cell_angle_alpha                 90.0
_cell_angle_beta                 90.0
_cell_angle_gamma                 120.0
loop_
_atom_site_label
_atom_site_type_symbol
_atom_site_fract_x
_atom_site_fract_y
_atom_site_fract_z
V1     V     0.1667   0.3333   0.625
V2     V     0.1667   0.8333   0.625
V3     V     0.6667   0.3333   0.625
V4     V     0.6667   0.8333   0.625
Ti5     Ti     0.3333   0.1667   0.75
Ti6     Ti     0.3333   0.6667   0.75
Ti7     Ti     0.8333   0.1667   0.75
Ti8     Ti     0.8333   0.6667   0.75
V9     V     0.1667   0.3333   0.875
V10     V     0.1667   0.8333   0.875
V11     V     0.6667   0.3333   0.875
V12     V     0.6667   0.8333   0.875
V13     V     0.3333   0.1667   0.375
V14     V     0.3333   0.6667   0.375
V15     V     0.8333   0.1667   0.375
V16     V     0.8333   0.6667   0.375
Ti17     Ti     0.1667   0.3333   0.25
Ti18     Ti     0.1667   0.8333   0.25
Ti19     Ti     0.6667   0.3333   0.25
Ti20     Ti     0.6667   0.8333   0.25
V21     V     0.3333   0.1667   0.125
V22     V     0.3333   0.6667   0.125
V23     V     0.8333   0.1667   0.125
V24     V     0.8333   0.6667   0.125
Er25     Er     0.0   0.0   0.0
Er26     Er     1.0   0.5   0.0
Er27     Er     0.5   0.0   0.0
Er28     Er     0.5   0.5   0.0
Er29     Er     0.0   0.0   0.5
Er30     Er     1.0   0.5   0.5
Er31     Er     0.5   0.0   0.5
Er32     Er     0.5   0.5   0.5
loop_
_geom_bond_atom_site_label_1
_geom_bond_atom_site_label_2
_geom_bond_distance
_geom_bond_site_symmetry_2
_ccdc_geom_bond_type
V1     Er30    10.0   1_455     S
V1     Er32    10.0   .     S
V1     Ti5    10.0   .     S
V1     Er29    10.0   .     S
V1     Ti6    10.0   .     S
V1     Ti7    10.0   1_455     S
V2     Er29    10.0   1_565     S
V2     Er31    10.0   1_565     S
V2     Ti6    10.0   .     S
V2     Er30    10.0   1_455     S
V2     Ti5    10.0   1_565     S
V2     Ti8    10.0   1_455     S
V3     Er32    10.0   .     S
V3     Er30    10.0   .     S
V3     Ti7    10.0   .     S
V3     Er31    10.0   .     S
V3     Ti8    10.0   .     S
V3     Ti5    10.0   .     S
V4     Er31    10.0   1_565     S
V4     Er29    10.0   1_665     S
V4     Ti8    10.0   .     S
V4     Er32    10.0   .     S
V4     Ti7    10.0   1_565     S
V4     Ti6    10.0   .     S
Ti5     V2    10.0   1_545     S
Ti5     V9    10.0   .     S
Ti5     V10    10.0   1_545     S
Ti5     V11    10.0   .     S
Ti6     V10    10.0   .     S
Ti6     V9    10.0   .     S
Ti6     V12    10.0   .     S
Ti7     V4    10.0   1_545     S
Ti7     V1    10.0   1_655     S
Ti7     V11    10.0   .     S
Ti7     V12    10.0   1_545     S
Ti7     V9    10.0   1_655     S
Ti8     V2    10.0   1_655     S
Ti8     V12    10.0   .     S
Ti8     V11    10.0   .     S
Ti8     V10    10.0   1_655     S
V9     Er26    10.0   1_456     S
V9     Er28    10.0   1_556     S
V9     Ti7    10.0   1_455     S
V9     Er25    10.0   1_556     S
V10     Er25    10.0   1_566     S
V10     Er27    10.0   1_566     S
V10     Ti5    10.0   1_565     S
V10     Ti8    10.0   1_455     S
V10     Er26    10.0   1_456     S
V11     Er28    10.0   1_556     S
V11     Er26    10.0   1_556     S
V11     Er27    10.0   1_556     S
V12     Er27    10.0   1_566     S
V12     Er25    10.0   1_666     S
V12     Ti7    10.0   1_565     S
V12     Er28    10.0   1_556     S
V13     Er31    10.0   .     S
V13     Er32    10.0   .     S
V13     Ti17    10.0   .     S
V13     Er29    10.0   .     S
V13     Ti19    10.0   .     S
V13     Ti18    10.0   1_545     S
V14     Er32    10.0   .     S
V14     Er31    10.0   1_565     S
V14     Ti18    10.0   .     S
V14     Er30    10.0   1_455     S
V14     Ti20    10.0   .     S
V14     Ti17    10.0   .     S
V15     Er29    10.0   1_655     S
V15     Er30    10.0   .     S
V15     Ti19    10.0   .     S
V15     Er31    10.0   .     S
V15     Ti17    10.0   1_655     S
V15     Ti20    10.0   1_545     S
V16     Er30    10.0   .     S
V16     Er29    10.0   1_665     S
V16     Ti20    10.0   .     S
V16     Er32    10.0   .     S
V16     Ti18    10.0   1_655     S
V16     Ti19    10.0   .     S
Ti17     V21    10.0   .     S
Ti17     V22    10.0   .     S
Ti17     V23    10.0   1_455     S
Ti17     V15    10.0   1_455     S
Ti18     V22    10.0   .     S
Ti18     V21    10.0   1_565     S
Ti18     V24    10.0   1_455     S
Ti18     V16    10.0   1_455     S
Ti18     V13    10.0   1_565     S
Ti19     V23    10.0   .     S
Ti19     V24    10.0   .     S
Ti19     V21    10.0   .     S
Ti20     V24    10.0   .     S
Ti20     V23    10.0   1_565     S
Ti20     V22    10.0   .     S
Ti20     V15    10.0   1_565     S
V21     Er27    10.0   .     S
V21     Er28    10.0   .     S
V21     Er25    10.0   .     S
V21     Ti18    10.0   1_545     S
V22     Er28    10.0   .     S
V22     Er27    10.0   1_565     S
V22     Er26    10.0   1_455     S
V23     Er25    10.0   1_655     S
V23     Er26    10.0   .     S
V23     Er27    10.0   .     S
V23     Ti20    10.0   1_545     S
V23     Ti17    10.0   1_655     S
V24     Er26    10.0   .     S
V24     Er25    10.0   1_665     S
V24     Er28    10.0   .     S
V24     Ti18    10.0   1_655     S
Er25     V10    10.0   1_544     S
Er25     V12    10.0   1_444     S
Er25     V9    10.0   1_554     S
Er25     V23    10.0   1_455     S
Er25     V24    10.0   1_445     S
Er26     V9    10.0   1_654     S
Er26     V11    10.0   1_554     S
Er26     V10    10.0   1_654     S
Er26     V22    10.0   1_655     S
Er27     V12    10.0   1_544     S
Er27     V10    10.0   1_544     S
Er27     V11    10.0   1_554     S
Er27     V22    10.0   1_545     S
Er28     V11    10.0   1_554     S
Er28     V9    10.0   1_554     S
Er28     V12    10.0   1_554     S
Er29     V2    10.0   1_545     S
Er29     V4    10.0   1_445     S
Er29     V15    10.0   1_455     S
Er29     V16    10.0   1_445     S
Er30     V1    10.0   1_655     S
Er30     V2    10.0   1_655     S
Er30     V14    10.0   1_655     S
Er31     V4    10.0   1_545     S
Er31     V2    10.0   1_545     S
Er31     V14    10.0   1_545     S
