data_sto
_audit_creation_date              2019-12-31
_audit_creation_method            'Pymatgen'
_symmetry_space_group_name_H-M    'P1'
_symmetry_Int_Tables_number       1
loop_
_symmetry_equiv_pos_as_xyz
  x,y,z
_cell_length_a                    30.0
_cell_length_b                    30.0
_cell_length_c                    85.9807
_cell_angle_alpha                 90.0
_cell_angle_beta                 90.0
_cell_angle_gamma                 120.0
loop_
_atom_site_label
_atom_site_type_symbol
_atom_site_fract_x
_atom_site_fract_y
_atom_site_fract_z
Er1     Er     0.1667   0.0   0.5
Er2     Er     0.1667   0.3333   0.5
Er3     Er     0.1667   0.6667   0.5
Er4     Er     0.5   0.0   0.5
Er5     Er     0.5   0.3333   0.5
Er6     Er     0.5   0.6667   0.5
Er7     Er     0.8333   0.0   0.5
Er8     Er     0.8333   0.3333   0.5
Er9     Er     0.8333   0.6667   0.5
V10     V     0.1667   0.1667   0.283
V11     V     0.1667   0.5   0.283
V12     V     0.1667   0.8333   0.283
V13     V     0.5   0.1667   0.283
V14     V     0.5   0.5   0.283
V15     V     0.5   0.8333   0.283
V16     V     0.8333   0.1667   0.283
V17     V     0.8333   0.5   0.283
V18     V     0.8333   0.8333   0.283
V19     V     0.1667   0.0   0.3837
V20     V     0.1667   0.3333   0.3837
V21     V     0.1667   0.6667   0.3837
V22     V     0.5   0.0   0.3837
V23     V     0.5   0.3333   0.3837
V24     V     0.5   0.6667   0.3837
V25     V     0.8333   0.0   0.3837
V26     V     0.8333   0.3333   0.3837
V27     V     0.8333   0.6667   0.3837
V28     V     0.0   0.1667   0.9496
V29     V     1.0   0.5   0.9496
V30     V     1.0   0.8333   0.9496
V31     V     0.3333   0.1667   0.9496
V32     V     0.3333   0.5   0.9496
V33     V     0.3333   0.8333   0.9496
V34     V     0.6667   0.1667   0.9496
V35     V     0.6667   0.5   0.9496
V36     V     0.6667   0.8333   0.9496
V37     V     0.1667   0.1667   0.0504
V38     V     0.1667   0.5   0.0504
V39     V     0.1667   0.8333   0.0504
V40     V     0.5   0.1667   0.0504
V41     V     0.5   0.5   0.0504
V42     V     0.5   0.8333   0.0504
V43     V     0.8333   0.1667   0.0504
V44     V     0.8333   0.5   0.0504
V45     V     0.8333   0.8333   0.0504
Er46     Er     0.1667   0.1667   0.1667
Er47     Er     0.1667   0.5   0.1667
Er48     Er     0.1667   0.8333   0.1667
Er49     Er     0.5   0.1667   0.1667
Er50     Er     0.5   0.5   0.1667
Er51     Er     0.5   0.8333   0.1667
Er52     Er     0.8333   0.1667   0.1667
Er53     Er     0.8333   0.5   0.1667
Er54     Er     0.8333   0.8333   0.1667
V55     V     0.1667   0.0   0.6163
V56     V     0.1667   0.3333   0.6163
V57     V     0.1667   0.6667   0.6163
V58     V     0.5   0.0   0.6163
V59     V     0.5   0.3333   0.6163
V60     V     0.5   0.6667   0.6163
V61     V     0.8333   0.0   0.6163
V62     V     0.8333   0.3333   0.6163
V63     V     0.8333   0.6667   0.6163
V64     V     0.0   0.1667   0.717
V65     V     1.0   0.5   0.717
V66     V     1.0   0.8333   0.717
V67     V     0.3333   0.1667   0.717
V68     V     0.3333   0.5   0.717
V69     V     0.3333   0.8333   0.717
V70     V     0.6667   0.1667   0.717
V71     V     0.6667   0.5   0.717
V72     V     0.6667   0.8333   0.717
Er73     Er     0.0   0.1667   0.8333
Er74     Er     1.0   0.5   0.8333
Er75     Er     1.0   0.8333   0.8333
Er76     Er     0.3333   0.1667   0.8333
Er77     Er     0.3333   0.5   0.8333
Er78     Er     0.3333   0.8333   0.8333
Er79     Er     0.6667   0.1667   0.8333
Er80     Er     0.6667   0.5   0.8333
Er81     Er     0.6667   0.8333   0.8333
loop_
_geom_bond_atom_site_label_1
_geom_bond_atom_site_label_2
_geom_bond_distance
_geom_bond_site_symmetry_2
_ccdc_geom_bond_type
Er1     V55    10.0   .     S
Er1     V19    10.0   .     S
Er1     Er7    10.0   1_455     S
Er1     Er4    10.0   .     S
Er2     V56    10.0   .     S
Er2     V20    10.0   .     S
Er2     Er8    10.0   1_455     S
Er2     Er5    10.0   .     S
Er3     V57    10.0   .     S
Er3     V21    10.0   .     S
Er3     Er9    10.0   1_455     S
Er3     Er6    10.0   .     S
Er4     V58    10.0   .     S
Er4     V22    10.0   .     S
Er4     Er7    10.0   .     S
Er5     V59    10.0   .     S
Er5     V23    10.0   .     S
Er5     Er8    10.0   .     S
Er6     V60    10.0   .     S
Er6     V24    10.0   .     S
Er6     Er9    10.0   .     S
Er7     V61    10.0   .     S
Er7     V25    10.0   .     S
Er7     Er1    10.0   1_655     S
Er8     V62    10.0   .     S
Er8     V26    10.0   .     S
Er8     Er2    10.0   1_655     S
Er9     V63    10.0   .     S
Er9     V27    10.0   .     S
Er9     Er3    10.0   1_655     S
V10     V20    9.999   .     S
V10     V19    9.999   .     S
V10     Er46    10.0   .     S
V11     V21    9.999   .     S
V11     V20    9.999   .     S
V11     Er47    10.0   .     S
V12     V19    9.999   1_565     S
V12     V21    9.999   .     S
V12     Er48    10.0   .     S
V13     V23    9.999   .     S
V13     V22    9.999   .     S
V13     Er49    10.0   .     S
V14     V24    9.999   .     S
V14     V23    9.999   .     S
V14     Er50    10.0   .     S
V15     V22    9.999   1_565     S
V15     V24    9.999   .     S
V15     Er51    10.0   .     S
V16     V26    9.999   .     S
V16     V25    9.999   .     S
V16     Er52    10.0   .     S
V17     V27    9.999   .     S
V17     V26    9.999   .     S
V17     Er53    10.0   .     S
V18     V25    9.999   1_565     S
V18     V27    9.999   .     S
V18     Er54    10.0   .     S
V19     V12    9.999   1_545     S
V22     V15    9.999   1_545     S
V25     V18    9.999   1_545     S
V28     V37    9.999   1_556     S
V28     V43    9.999   1_456     S
V28     Er73    10.0   .     S
V29     V38    9.999   1_656     S
V29     V44    9.999   1_556     S
V29     Er74    10.0   .     S
V30     V39    9.999   1_656     S
V30     V45    9.999   1_556     S
V30     Er75    10.0   .     S
V31     V40    9.999   1_556     S
V31     V37    9.999   1_556     S
V31     Er76    10.0   .     S
V32     V41    9.999   1_556     S
V32     V38    9.999   1_556     S
V32     Er77    10.0   .     S
V33     V42    9.999   1_556     S
V33     V39    9.999   1_556     S
V33     Er78    10.0   .     S
V34     V43    9.999   1_556     S
V34     V40    9.999   1_556     S
V34     Er79    10.0   .     S
V35     V44    9.999   1_556     S
V35     V41    9.999   1_556     S
V35     Er80    10.0   .     S
V36     V45    9.999   1_556     S
V36     V42    9.999   1_556     S
V36     Er81    10.0   .     S
V37     V28    9.999   1_554     S
V37     V31    9.999   1_554     S
V37     Er46    10.0   .     S
V38     V29    9.999   1_454     S
V38     V32    9.999   1_554     S
V38     Er47    10.0   .     S
V39     V30    9.999   1_454     S
V39     V33    9.999   1_554     S
V39     Er48    10.0   .     S
V40     V31    9.999   1_554     S
V40     V34    9.999   1_554     S
V40     Er49    10.0   .     S
V41     V32    9.999   1_554     S
V41     V35    9.999   1_554     S
V41     Er50    10.0   .     S
V42     V33    9.999   1_554     S
V42     V36    9.999   1_554     S
V42     Er51    10.0   .     S
V43     V34    9.999   1_554     S
V43     V28    9.999   1_654     S
V43     Er52    10.0   .     S
V44     V35    9.999   1_554     S
V44     V29    9.999   1_554     S
V44     Er53    10.0   .     S
V45     V36    9.999   1_554     S
V45     V30    9.999   1_554     S
V45     Er54    10.0   .     S
Er46     Er54    10.0   1_445     S
Er46     Er50    10.0   .     S
Er47     Er52    10.0   1_455     S
Er47     Er51    10.0   .     S
Er48     Er53    10.0   1_455     S
Er48     Er49    10.0   1_565     S
Er49     Er48    10.0   1_545     S
Er49     Er53    10.0   .     S
Er50     Er54    10.0   .     S
Er51     Er52    10.0   1_565     S
Er52     Er47    10.0   1_655     S
Er52     Er51    10.0   1_545     S
Er53     Er48    10.0   1_655     S
Er54     Er46    10.0   1_665     S
V55     V67    9.999   .     S
V55     V66    9.999   1_445     S
V56     V68    9.999   .     S
V56     V64    9.999   .     S
V57     V69    9.999   .     S
V57     V65    9.999   1_455     S
V58     V70    9.999   .     S
V58     V69    9.999   1_545     S
V59     V71    9.999   .     S
V59     V67    9.999   .     S
V60     V72    9.999   .     S
V60     V68    9.999   .     S
V61     V64    9.999   1_655     S
V61     V72    9.999   1_545     S
V62     V65    9.999   .     S
V62     V70    9.999   .     S
V63     V66    9.999   .     S
V63     V71    9.999   .     S
V64     V61    9.999   1_455     S
V64     Er73    10.0   .     S
V65     V57    9.999   1_655     S
V65     Er74    10.0   .     S
V66     V55    9.999   1_665     S
V66     Er75    10.0   .     S
V67     Er76    10.0   .     S
V68     Er77    10.0   .     S
V69     V58    9.999   1_565     S
V69     Er78    10.0   .     S
V70     Er79    10.0   .     S
V71     Er80    10.0   .     S
V72     V61    9.999   1_565     S
V72     Er81    10.0   .     S
Er73     Er75    10.0   1_445     S
Er73     Er74    10.0   1_455     S
Er74     Er73    10.0   1_655     S
Er74     Er75    10.0   .     S
Er75     Er73    10.0   1_665     S
Er76     Er78    10.0   1_545     S
Er76     Er77    10.0   .     S
Er77     Er78    10.0   .     S
Er78     Er76    10.0   1_565     S
Er79     Er81    10.0   1_545     S
Er79     Er80    10.0   .     S
Er80     Er81    10.0   .     S
Er81     Er79    10.0   1_565     S
