data_sva
_audit_creation_date              2019-12-31
_audit_creation_method            'Pymatgen'
_symmetry_space_group_name_H-M    'P1'
_symmetry_Int_Tables_number       1
loop_
_symmetry_equiv_pos_as_xyz
  x,y,z
_cell_length_a                    26.5832
_cell_length_b                    26.5832
_cell_length_c                    30.0
_cell_angle_alpha                 90.0
_cell_angle_beta                 90.0
_cell_angle_gamma                 90.0
loop_
_atom_site_label
_atom_site_type_symbol
_atom_site_fract_x
_atom_site_fract_y
_atom_site_fract_z
V1     V     0.3119   0.0   0.25
V2     V     0.3119   0.0   0.5833
V3     V     0.3119   0.0   0.9167
V4     V     0.6881   0.0   0.25
V5     V     0.6881   0.0   0.5833
V6     V     0.6881   0.0   0.9167
V7     V     0.5   0.6881   0.1667
V8     V     0.5   0.6881   0.5
V9     V     0.5   0.6881   0.8333
V10     V     0.5   0.3119   0.1667
V11     V     0.5   0.3119   0.5
V12     V     0.5   0.3119   0.8333
V13     V     0.0   0.8119   0.0
V14     V     0.0   0.8119   0.3333
V15     V     0.0   0.8119   0.6667
V16     V     0.0   0.1881   0.0
V17     V     0.0   0.1881   0.3333
V18     V     0.0   0.1881   0.6667
V19     V     0.1881   0.5   0.0833
V20     V     0.1881   0.5   0.4167
V21     V     0.1881   0.5   0.75
V22     V     0.8119   0.5   0.0833
V23     V     0.8119   0.5   0.4167
V24     V     0.8119   0.5   0.75
loop_
_geom_bond_atom_site_label_1
_geom_bond_atom_site_label_2
_geom_bond_distance
_geom_bond_site_symmetry_2
_ccdc_geom_bond_type
V1     V17    10.0   .     S
V1     V14    10.0   1_545     S
V1     V3    10.0   1_554     S
V1     V2    10.0   .     S
V1     V4    10.0   .     S
V1     V7    10.0   1_545     S
V1     V10    10.0   .     S
V2     V18    10.0   .     S
V2     V15    10.0   1_545     S
V2     V3    10.0   .     S
V2     V5    10.0   .     S
V2     V8    10.0   1_545     S
V2     V11    10.0   .     S
V3     V16    10.0   1_556     S
V3     V13    10.0   1_546     S
V3     V1    10.0   1_556     S
V3     V6    10.0   .     S
V3     V9    10.0   1_545     S
V3     V12    10.0   .     S
V4     V17    10.0   1_655     S
V4     V14    10.0   1_645     S
V4     V6    10.0   1_554     S
V4     V5    10.0   .     S
V4     V7    10.0   1_545     S
V4     V10    10.0   .     S
V5     V18    10.0   1_655     S
V5     V15    10.0   1_645     S
V5     V6    10.0   .     S
V5     V8    10.0   1_545     S
V5     V11    10.0   .     S
V6     V16    10.0   1_656     S
V6     V13    10.0   1_646     S
V6     V4    10.0   1_556     S
V6     V9    10.0   1_545     S
V6     V12    10.0   .     S
V7     V4    10.0   1_565     S
V7     V1    10.0   1_565     S
V7     V9    10.0   1_554     S
V7     V8    10.0   .     S
V7     V10    10.0   .     S
V7     V19    10.0   .     S
V7     V22    10.0   .     S
V8     V5    10.0   1_565     S
V8     V2    10.0   1_565     S
V8     V9    10.0   .     S
V8     V11    10.0   .     S
V8     V20    10.0   .     S
V8     V23    10.0   .     S
V9     V6    10.0   1_565     S
V9     V3    10.0   1_565     S
V9     V7    10.0   1_556     S
V9     V12    10.0   .     S
V9     V21    10.0   .     S
V9     V24    10.0   .     S
V10     V12    10.0   1_554     S
V10     V11    10.0   .     S
V10     V19    10.0   .     S
V10     V22    10.0   .     S
V11     V12    10.0   .     S
V11     V20    10.0   .     S
V11     V23    10.0   .     S
V12     V10    10.0   1_556     S
V12     V21    10.0   .     S
V12     V24    10.0   .     S
V13     V3    10.0   1_564     S
V13     V6    10.0   1_464     S
V13     V22    10.0   1_455     S
V13     V19    10.0   .     S
V13     V14    10.0   .     S
V13     V15    10.0   1_554     S
V13     V16    10.0   1_565     S
V14     V1    10.0   1_565     S
V14     V4    10.0   1_465     S
V14     V23    10.0   1_455     S
V14     V20    10.0   .     S
V14     V15    10.0   .     S
V14     V17    10.0   1_565     S
V15     V2    10.0   1_565     S
V15     V5    10.0   1_465     S
V15     V24    10.0   1_455     S
V15     V21    10.0   .     S
V15     V13    10.0   1_556     S
V15     V18    10.0   1_565     S
V16     V3    10.0   1_554     S
V16     V6    10.0   1_454     S
V16     V22    10.0   1_455     S
V16     V19    10.0   .     S
V16     V17    10.0   .     S
V16     V18    10.0   1_554     S
V16     V13    10.0   1_545     S
V17     V4    10.0   1_455     S
V17     V23    10.0   1_455     S
V17     V20    10.0   .     S
V17     V18    10.0   .     S
V17     V14    10.0   1_545     S
V18     V5    10.0   1_455     S
V18     V24    10.0   1_455     S
V18     V21    10.0   .     S
V18     V16    10.0   1_556     S
V18     V15    10.0   1_545     S
V19     V20    10.0   .     S
V19     V21    10.0   1_554     S
V19     V22    10.0   1_455     S
V20     V21    10.0   .     S
V20     V23    10.0   1_455     S
V21     V19    10.0   1_556     S
V21     V24    10.0   1_455     S
V22     V13    10.0   1_655     S
V22     V16    10.0   1_655     S
V22     V23    10.0   .     S
V22     V24    10.0   1_554     S
V22     V19    10.0   1_655     S
V23     V14    10.0   1_655     S
V23     V17    10.0   1_655     S
V23     V24    10.0   .     S
V23     V20    10.0   1_655     S
V24     V15    10.0   1_655     S
V24     V18    10.0   1_655     S
V24     V22    10.0   1_556     S
V24     V21    10.0   1_655     S
