data_svc
_audit_creation_date              2019-12-31
_audit_creation_method            'Pymatgen'
_symmetry_space_group_name_H-M    'P1'
_symmetry_Int_Tables_number       1
loop_
_symmetry_equiv_pos_as_xyz
  x,y,z
_cell_length_a                    38.6372
_cell_length_b                    38.6372
_cell_length_c                    38.6368
_cell_angle_alpha                 90.0
_cell_angle_beta                 90.0
_cell_angle_gamma                 90.0
loop_
_atom_site_label
_atom_site_type_symbol
_atom_site_fract_x
_atom_site_fract_y
_atom_site_fract_z
V1     V     0.0915   0.0335   0.625
V2     V     0.0915   0.5335   0.625
V3     V     0.5915   0.0335   0.625
V4     V     0.5915   0.5335   0.625
V5     V     0.4085   0.2165   0.625
V6     V     0.4085   0.7165   0.625
V7     V     0.9085   0.2165   0.625
V8     V     0.9085   0.7165   0.625
V9     V     0.1585   0.0335   0.375
V10     V     0.1585   0.5335   0.375
V11     V     0.6585   0.0335   0.375
V12     V     0.6585   0.5335   0.375
V13     V     0.3415   0.2165   0.375
V14     V     0.3415   0.7165   0.375
V15     V     0.8415   0.2165   0.375
V16     V     0.8415   0.7165   0.375
V17     V     0.3415   0.2835   0.125
V18     V     0.3415   0.7835   0.125
V19     V     0.8415   0.2835   0.125
V20     V     0.8415   0.7835   0.125
V21     V     0.1585   0.4665   0.125
V22     V     0.1585   0.9665   0.125
V23     V     0.6585   0.4665   0.125
V24     V     0.6585   0.9665   0.125
V25     V     0.4085   0.2835   0.875
V26     V     0.4085   0.7835   0.875
V27     V     0.9085   0.2835   0.875
V28     V     0.9085   0.7835   0.875
V29     V     0.0915   0.4665   0.875
V30     V     0.0915   0.9665   0.875
V31     V     0.5915   0.4665   0.875
V32     V     0.5915   0.9665   0.875
V33     V     0.1585   0.2835   0.625
V34     V     0.1585   0.7835   0.625
V35     V     0.6585   0.2835   0.625
V36     V     0.6585   0.7835   0.625
V37     V     0.3415   0.4665   0.625
V38     V     0.3415   0.9665   0.625
V39     V     0.8415   0.4665   0.625
V40     V     0.8415   0.9665   0.625
V41     V     0.0915   0.2835   0.375
V42     V     0.0915   0.7835   0.375
V43     V     0.5915   0.2835   0.375
V44     V     0.5915   0.7835   0.375
V45     V     0.4085   0.4665   0.375
V46     V     0.4085   0.9665   0.375
V47     V     0.9085   0.4665   0.375
V48     V     0.9085   0.9665   0.375
V49     V     0.4085   0.0335   0.125
V50     V     0.4085   0.5335   0.125
V51     V     0.9085   0.0335   0.125
V52     V     0.9085   0.5335   0.125
V53     V     0.0915   0.2165   0.125
V54     V     0.0915   0.7165   0.125
V55     V     0.5915   0.2165   0.125
V56     V     0.5915   0.7165   0.125
V57     V     0.3415   0.0335   0.875
V58     V     0.3415   0.5335   0.875
V59     V     0.8415   0.0335   0.875
V60     V     0.8415   0.5335   0.875
V61     V     0.1585   0.2165   0.875
V62     V     0.1585   0.7165   0.875
V63     V     0.6585   0.2165   0.875
V64     V     0.6585   0.7165   0.875
loop_
_geom_bond_atom_site_label_1
_geom_bond_atom_site_label_2
_geom_bond_distance
_geom_bond_site_symmetry_2
_ccdc_geom_bond_type
V1     V33    10.0   .     S
V1     V40    10.0   1_445     S
V1     V34    10.0   1_545     S
V1     V38    10.0   1_545     S
V1     V7    10.0   1_455     S
V1     V9    10.0   .     S
V1     V30    10.0   1_545     S
V2     V34    10.0   .     S
V2     V39    10.0   1_455     S
V2     V33    10.0   .     S
V2     V37    10.0   .     S
V2     V8    10.0   1_455     S
V2     V10    10.0   .     S
V2     V29    10.0   .     S
V3     V35    10.0   .     S
V3     V38    10.0   1_545     S
V3     V36    10.0   1_545     S
V3     V40    10.0   1_545     S
V3     V5    10.0   .     S
V3     V11    10.0   .     S
V3     V32    10.0   1_545     S
V4     V36    10.0   .     S
V4     V37    10.0   .     S
V4     V35    10.0   .     S
V4     V39    10.0   .     S
V4     V6    10.0   .     S
V4     V12    10.0   .     S
V4     V31    10.0   .     S
V5     V35    10.0   .     S
V5     V37    10.0   .     S
V5     V33    10.0   .     S
V5     V38    10.0   1_545     S
V5     V13    10.0   .     S
V5     V25    10.0   .     S
V6     V36    10.0   .     S
V6     V38    10.0   .     S
V6     V34    10.0   .     S
V6     V37    10.0   .     S
V6     V14    10.0   .     S
V6     V26    10.0   .     S
V7     V33    10.0   1_655     S
V7     V39    10.0   .     S
V7     V35    10.0   .     S
V7     V40    10.0   1_545     S
V7     V1    10.0   1_655     S
V7     V15    10.0   .     S
V7     V27    10.0   .     S
V8     V34    10.0   1_655     S
V8     V40    10.0   .     S
V8     V36    10.0   .     S
V8     V39    10.0   .     S
V8     V2    10.0   1_655     S
V8     V16    10.0   .     S
V8     V28    10.0   .     S
V9     V48    10.0   1_445     S
V9     V42    10.0   1_545     S
V9     V41    10.0   .     S
V9     V46    10.0   1_545     S
V9     V13    10.0   .     S
V9     V22    10.0   1_545     S
V10     V47    10.0   1_455     S
V10     V41    10.0   .     S
V10     V42    10.0   .     S
V10     V45    10.0   .     S
V10     V14    10.0   .     S
V10     V21    10.0   .     S
V11     V46    10.0   1_545     S
V11     V44    10.0   1_545     S
V11     V43    10.0   .     S
V11     V48    10.0   1_545     S
V11     V15    10.0   .     S
V11     V24    10.0   1_545     S
V12     V45    10.0   .     S
V12     V43    10.0   .     S
V12     V44    10.0   .     S
V12     V47    10.0   .     S
V12     V16    10.0   .     S
V12     V23    10.0   .     S
V13     V41    10.0   .     S
V13     V43    10.0   .     S
V13     V45    10.0   .     S
V13     V46    10.0   1_545     S
V13     V17    10.0   .     S
V14     V42    10.0   .     S
V14     V44    10.0   .     S
V14     V46    10.0   .     S
V14     V45    10.0   .     S
V14     V18    10.0   .     S
V15     V43    10.0   .     S
V15     V41    10.0   1_655     S
V15     V47    10.0   .     S
V15     V48    10.0   1_545     S
V15     V19    10.0   .     S
V16     V44    10.0   .     S
V16     V42    10.0   1_655     S
V16     V48    10.0   .     S
V16     V47    10.0   .     S
V16     V20    10.0   .     S
V17     V53    10.0   .     S
V17     V49    10.0   .     S
V17     V55    10.0   .     S
V17     V50    10.0   .     S
V17     V21    10.0   .     S
V17     V25    10.0   1_554     S
V18     V54    10.0   .     S
V18     V50    10.0   .     S
V18     V56    10.0   .     S
V18     V49    10.0   1_565     S
V18     V22    10.0   .     S
V18     V26    10.0   1_554     S
V19     V55    10.0   .     S
V19     V51    10.0   .     S
V19     V53    10.0   1_655     S
V19     V52    10.0   .     S
V19     V23    10.0   .     S
V19     V27    10.0   1_554     S
V20     V56    10.0   .     S
V20     V52    10.0   .     S
V20     V54    10.0   1_655     S
V20     V51    10.0   1_565     S
V20     V24    10.0   .     S
V20     V28    10.0   1_554     S
V21     V53    10.0   .     S
V21     V50    10.0   .     S
V21     V54    10.0   .     S
V21     V52    10.0   1_455     S
V21     V29    10.0   1_554     S
V22     V54    10.0   .     S
V22     V49    10.0   1_565     S
V22     V53    10.0   1_565     S
V22     V51    10.0   1_465     S
V22     V30    10.0   1_554     S
V22     V9    10.0   1_565     S
V23     V55    10.0   .     S
V23     V52    10.0   .     S
V23     V56    10.0   .     S
V23     V50    10.0   .     S
V23     V31    10.0   1_554     S
V24     V56    10.0   .     S
V24     V51    10.0   1_565     S
V24     V55    10.0   1_565     S
V24     V49    10.0   1_565     S
V24     V32    10.0   1_554     S
V24     V11    10.0   1_565     S
V25     V63    10.0   .     S
V25     V61    10.0   .     S
V25     V57    10.0   .     S
V25     V58    10.0   .     S
V25     V31    10.0   .     S
V25     V17    10.0   1_556     S
V26     V64    10.0   .     S
V26     V62    10.0   .     S
V26     V58    10.0   .     S
V26     V57    10.0   1_565     S
V26     V32    10.0   .     S
V26     V18    10.0   1_556     S
V27     V61    10.0   1_655     S
V27     V63    10.0   .     S
V27     V59    10.0   .     S
V27     V60    10.0   .     S
V27     V29    10.0   1_655     S
V27     V19    10.0   1_556     S
V28     V62    10.0   1_655     S
V28     V64    10.0   .     S
V28     V60    10.0   .     S
V28     V59    10.0   1_565     S
V28     V30    10.0   1_655     S
V28     V20    10.0   1_556     S
V29     V61    10.0   .     S
V29     V60    10.0   1_455     S
V29     V27    10.0   1_455     S
V29     V21    10.0   1_556     S
V29     V58    10.0   .     S
V29     V62    10.0   .     S
V30     V62    10.0   .     S
V30     V59    10.0   1_465     S
V30     V28    10.0   1_455     S
V30     V1    10.0   1_565     S
V30     V22    10.0   1_556     S
V30     V57    10.0   1_565     S
V30     V61    10.0   1_565     S
V31     V63    10.0   .     S
V31     V58    10.0   .     S
V31     V23    10.0   1_556     S
V31     V60    10.0   .     S
V31     V64    10.0   .     S
V32     V64    10.0   .     S
V32     V57    10.0   1_565     S
V32     V3    10.0   1_565     S
V32     V24    10.0   1_556     S
V32     V59    10.0   1_565     S
V32     V63    10.0   1_565     S
V33     V7    10.0   1_455     S
V33     V37    10.0   .     S
V33     V41    10.0   .     S
V33     V61    10.0   .     S
V34     V8    10.0   1_455     S
V34     V1    10.0   1_565     S
V34     V38    10.0   .     S
V34     V42    10.0   .     S
V34     V62    10.0   .     S
V35     V39    10.0   .     S
V35     V43    10.0   .     S
V35     V63    10.0   .     S
V36     V3    10.0   1_565     S
V36     V40    10.0   .     S
V36     V44    10.0   .     S
V36     V64    10.0   .     S
V37     V45    10.0   .     S
V37     V58    10.0   .     S
V38     V3    10.0   1_565     S
V38     V5    10.0   1_565     S
V38     V1    10.0   1_565     S
V38     V46    10.0   .     S
V38     V57    10.0   1_565     S
V39     V2    10.0   1_655     S
V39     V47    10.0   .     S
V39     V60    10.0   .     S
V40     V1    10.0   1_665     S
V40     V7    10.0   1_565     S
V40     V3    10.0   1_565     S
V40     V48    10.0   .     S
V40     V59    10.0   1_565     S
V41     V15    10.0   1_455     S
V41     V47    10.0   1_455     S
V41     V53    10.0   .     S
V42     V9    10.0   1_565     S
V42     V16    10.0   1_455     S
V42     V48    10.0   1_455     S
V42     V54    10.0   .     S
V43     V45    10.0   .     S
V43     V55    10.0   .     S
V44     V11    10.0   1_565     S
V44     V46    10.0   .     S
V44     V56    10.0   .     S
V45     V50    10.0   .     S
V46     V11    10.0   1_565     S
V46     V13    10.0   1_565     S
V46     V9    10.0   1_565     S
V46     V49    10.0   1_565     S
V47     V10    10.0   1_655     S
V47     V41    10.0   1_655     S
V47     V52    10.0   .     S
V48     V9    10.0   1_665     S
V48     V15    10.0   1_565     S
V48     V11    10.0   1_565     S
V48     V42    10.0   1_655     S
V48     V51    10.0   1_565     S
V49     V22    10.0   1_545     S
V49     V18    10.0   1_545     S
V49     V24    10.0   1_545     S
V49     V55    10.0   .     S
V49     V57    10.0   1_554     S
V49     V46    10.0   1_545     S
V50     V56    10.0   .     S
V50     V58    10.0   1_554     S
V51     V24    10.0   1_545     S
V51     V20    10.0   1_545     S
V51     V22    10.0   1_645     S
V51     V53    10.0   1_655     S
V51     V59    10.0   1_554     S
V51     V48    10.0   1_545     S
V52     V21    10.0   1_655     S
V52     V54    10.0   1_655     S
V52     V60    10.0   1_554     S
V53     V19    10.0   1_455     S
V53     V22    10.0   1_545     S
V53     V51    10.0   1_455     S
V53     V61    10.0   1_554     S
V54     V20    10.0   1_455     S
V54     V52    10.0   1_455     S
V54     V62    10.0   1_554     S
V55     V24    10.0   1_545     S
V55     V63    10.0   1_554     S
V56     V64    10.0   1_554     S
V57     V26    10.0   1_545     S
V57     V32    10.0   1_545     S
V57     V30    10.0   1_545     S
V57     V61    10.0   .     S
V57     V38    10.0   1_545     S
V57     V49    10.0   1_556     S
V58     V62    10.0   .     S
V58     V50    10.0   1_556     S
V59     V28    10.0   1_545     S
V59     V30    10.0   1_645     S
V59     V32    10.0   1_545     S
V59     V63    10.0   .     S
V59     V40    10.0   1_545     S
V59     V51    10.0   1_556     S
V60     V29    10.0   1_655     S
V60     V64    10.0   .     S
V60     V52    10.0   1_556     S
V61     V27    10.0   1_455     S
V61     V30    10.0   1_545     S
V61     V53    10.0   1_556     S
V62     V28    10.0   1_455     S
V62     V54    10.0   1_556     S
V63     V32    10.0   1_545     S
V63     V55    10.0   1_556     S
V64     V56    10.0   1_556     S
