data_sve
_audit_creation_date              2019-12-31
_audit_creation_method            'Pymatgen'
_symmetry_space_group_name_H-M    'P1'
_symmetry_Int_Tables_number       1
loop_
_symmetry_equiv_pos_as_xyz
  x,y,z
_cell_length_a                    38.637
_cell_length_b                    38.637
_cell_length_c                    30.0
_cell_angle_alpha                 90.0
_cell_angle_beta                 90.0
_cell_angle_gamma                 90.0
loop_
_atom_site_label
_atom_site_type_symbol
_atom_site_fract_x
_atom_site_fract_y
_atom_site_fract_z
V1     V     0.3415   0.0915   0.0
V2     V     0.3415   0.0915   0.3333
V3     V     0.3415   0.0915   0.6667
V4     V     0.3415   0.5915   0.0
V5     V     0.3415   0.5915   0.3333
V6     V     0.3415   0.5915   0.6667
V7     V     0.8415   0.0915   0.0
V8     V     0.8415   0.0915   0.3333
V9     V     0.8415   0.0915   0.6667
V10     V     0.8415   0.5915   0.0
V11     V     0.8415   0.5915   0.3333
V12     V     0.8415   0.5915   0.6667
V13     V     0.1585   0.4085   0.0
V14     V     0.1585   0.4085   0.3333
V15     V     0.1585   0.4085   0.6667
V16     V     0.1585   0.9085   0.0
V17     V     0.1585   0.9085   0.3333
V18     V     0.1585   0.9085   0.6667
V19     V     0.6585   0.4085   0.0
V20     V     0.6585   0.4085   0.3333
V21     V     0.6585   0.4085   0.6667
V22     V     0.6585   0.9085   0.0
V23     V     0.6585   0.9085   0.3333
V24     V     0.6585   0.9085   0.6667
V25     V     0.4085   0.3415   0.0
V26     V     0.4085   0.3415   0.3333
V27     V     0.4085   0.3415   0.6667
V28     V     0.4085   0.8415   0.0
V29     V     0.4085   0.8415   0.3333
V30     V     0.4085   0.8415   0.6667
V31     V     0.9085   0.3415   0.0
V32     V     0.9085   0.3415   0.3333
V33     V     0.9085   0.3415   0.6667
V34     V     0.9085   0.8415   0.0
V35     V     0.9085   0.8415   0.3333
V36     V     0.9085   0.8415   0.6667
V37     V     0.0915   0.1585   0.0
V38     V     0.0915   0.1585   0.3333
V39     V     0.0915   0.1585   0.6667
V40     V     0.0915   0.6585   0.0
V41     V     0.0915   0.6585   0.3333
V42     V     0.0915   0.6585   0.6667
V43     V     0.5915   0.1585   0.0
V44     V     0.5915   0.1585   0.3333
V45     V     0.5915   0.1585   0.6667
V46     V     0.5915   0.6585   0.0
V47     V     0.5915   0.6585   0.3333
V48     V     0.5915   0.6585   0.6667
loop_
_geom_bond_atom_site_label_1
_geom_bond_atom_site_label_2
_geom_bond_distance
_geom_bond_site_symmetry_2
_ccdc_geom_bond_type
V1     V28    10.0   1_545     S
V1     V43    10.0   .     S
V1     V25    10.0   .     S
V1     V16    10.0   1_545     S
V1     V2    10.0   .     S
V1     V3    10.0   1_554     S
V1     V37    10.0   .     S
V2     V29    10.0   1_545     S
V2     V44    10.0   .     S
V2     V26    10.0   .     S
V2     V17    10.0   1_545     S
V2     V3    10.0   .     S
V2     V38    10.0   .     S
V3     V30    10.0   1_545     S
V3     V45    10.0   .     S
V3     V27    10.0   .     S
V3     V18    10.0   1_545     S
V3     V1    10.0   1_556     S
V3     V39    10.0   .     S
V4     V25    10.0   .     S
V4     V46    10.0   .     S
V4     V28    10.0   .     S
V4     V13    10.0   .     S
V4     V5    10.0   .     S
V4     V6    10.0   1_554     S
V4     V40    10.0   .     S
V5     V26    10.0   .     S
V5     V47    10.0   .     S
V5     V29    10.0   .     S
V5     V14    10.0   .     S
V5     V6    10.0   .     S
V5     V41    10.0   .     S
V6     V27    10.0   .     S
V6     V48    10.0   .     S
V6     V30    10.0   .     S
V6     V15    10.0   .     S
V6     V4    10.0   1_556     S
V6     V42    10.0   .     S
V7     V34    10.0   1_545     S
V7     V37    10.0   1_655     S
V7     V31    10.0   .     S
V7     V22    10.0   1_545     S
V7     V8    10.0   .     S
V7     V9    10.0   1_554     S
V7     V43    10.0   .     S
V8     V35    10.0   1_545     S
V8     V38    10.0   1_655     S
V8     V32    10.0   .     S
V8     V23    10.0   1_545     S
V8     V9    10.0   .     S
V8     V44    10.0   .     S
V9     V36    10.0   1_545     S
V9     V39    10.0   1_655     S
V9     V33    10.0   .     S
V9     V24    10.0   1_545     S
V9     V7    10.0   1_556     S
V9     V45    10.0   .     S
V10     V31    10.0   .     S
V10     V40    10.0   1_655     S
V10     V34    10.0   .     S
V10     V19    10.0   .     S
V10     V11    10.0   .     S
V10     V12    10.0   1_554     S
V10     V46    10.0   .     S
V11     V32    10.0   .     S
V11     V41    10.0   1_655     S
V11     V35    10.0   .     S
V11     V20    10.0   .     S
V11     V12    10.0   .     S
V11     V47    10.0   .     S
V12     V33    10.0   .     S
V12     V42    10.0   1_655     S
V12     V36    10.0   .     S
V12     V21    10.0   .     S
V12     V10    10.0   1_556     S
V12     V48    10.0   .     S
V13     V31    10.0   1_455     S
V13     V37    10.0   .     S
V13     V25    10.0   .     S
V13     V14    10.0   .     S
V13     V15    10.0   1_554     S
V13     V40    10.0   .     S
V14     V32    10.0   1_455     S
V14     V38    10.0   .     S
V14     V26    10.0   .     S
V14     V15    10.0   .     S
V14     V41    10.0   .     S
V15     V33    10.0   1_455     S
V15     V39    10.0   .     S
V15     V27    10.0   .     S
V15     V13    10.0   1_556     S
V15     V42    10.0   .     S
V16     V34    10.0   1_455     S
V16     V40    10.0   .     S
V16     V28    10.0   .     S
V16     V1    10.0   1_565     S
V16     V17    10.0   .     S
V16     V18    10.0   1_554     S
V16     V37    10.0   1_565     S
V17     V35    10.0   1_455     S
V17     V41    10.0   .     S
V17     V29    10.0   .     S
V17     V2    10.0   1_565     S
V17     V18    10.0   .     S
V17     V38    10.0   1_565     S
V18     V36    10.0   1_455     S
V18     V42    10.0   .     S
V18     V30    10.0   .     S
V18     V3    10.0   1_565     S
V18     V16    10.0   1_556     S
V18     V39    10.0   1_565     S
V19     V25    10.0   .     S
V19     V43    10.0   .     S
V19     V31    10.0   .     S
V19     V20    10.0   .     S
V19     V21    10.0   1_554     S
V19     V46    10.0   .     S
V20     V26    10.0   .     S
V20     V44    10.0   .     S
V20     V32    10.0   .     S
V20     V21    10.0   .     S
V20     V47    10.0   .     S
V21     V27    10.0   .     S
V21     V45    10.0   .     S
V21     V33    10.0   .     S
V21     V19    10.0   1_556     S
V21     V48    10.0   .     S
V22     V28    10.0   .     S
V22     V46    10.0   .     S
V22     V34    10.0   .     S
V22     V7    10.0   1_565     S
V22     V23    10.0   .     S
V22     V24    10.0   1_554     S
V22     V43    10.0   1_565     S
V23     V29    10.0   .     S
V23     V47    10.0   .     S
V23     V35    10.0   .     S
V23     V8    10.0   1_565     S
V23     V24    10.0   .     S
V23     V44    10.0   1_565     S
V24     V30    10.0   .     S
V24     V48    10.0   .     S
V24     V36    10.0   .     S
V24     V9    10.0   1_565     S
V24     V22    10.0   1_556     S
V24     V45    10.0   1_565     S
V25     V43    10.0   .     S
V25     V26    10.0   .     S
V25     V27    10.0   1_554     S
V26     V44    10.0   .     S
V26     V27    10.0   .     S
V27     V45    10.0   .     S
V27     V25    10.0   1_556     S
V28     V1    10.0   1_565     S
V28     V46    10.0   .     S
V28     V29    10.0   .     S
V28     V30    10.0   1_554     S
V29     V2    10.0   1_565     S
V29     V47    10.0   .     S
V29     V30    10.0   .     S
V30     V3    10.0   1_565     S
V30     V48    10.0   .     S
V30     V28    10.0   1_556     S
V31     V13    10.0   1_655     S
V31     V37    10.0   1_655     S
V31     V32    10.0   .     S
V31     V33    10.0   1_554     S
V32     V14    10.0   1_655     S
V32     V38    10.0   1_655     S
V32     V33    10.0   .     S
V33     V15    10.0   1_655     S
V33     V39    10.0   1_655     S
V33     V31    10.0   1_556     S
V34     V16    10.0   1_655     S
V34     V7    10.0   1_565     S
V34     V40    10.0   1_655     S
V34     V35    10.0   .     S
V34     V36    10.0   1_554     S
V35     V17    10.0   1_655     S
V35     V8    10.0   1_565     S
V35     V41    10.0   1_655     S
V35     V36    10.0   .     S
V36     V18    10.0   1_655     S
V36     V9    10.0   1_565     S
V36     V42    10.0   1_655     S
V36     V34    10.0   1_556     S
V37     V7    10.0   1_455     S
V37     V16    10.0   1_545     S
V37     V31    10.0   1_455     S
V37     V38    10.0   .     S
V37     V39    10.0   1_554     S
V38     V8    10.0   1_455     S
V38     V17    10.0   1_545     S
V38     V32    10.0   1_455     S
V38     V39    10.0   .     S
V39     V9    10.0   1_455     S
V39     V18    10.0   1_545     S
V39     V33    10.0   1_455     S
V39     V37    10.0   1_556     S
V40     V10    10.0   1_455     S
V40     V34    10.0   1_455     S
V40     V41    10.0   .     S
V40     V42    10.0   1_554     S
V41     V11    10.0   1_455     S
V41     V35    10.0   1_455     S
V41     V42    10.0   .     S
V42     V12    10.0   1_455     S
V42     V36    10.0   1_455     S
V42     V40    10.0   1_556     S
V43     V22    10.0   1_545     S
V43     V44    10.0   .     S
V43     V45    10.0   1_554     S
V44     V23    10.0   1_545     S
V44     V45    10.0   .     S
V45     V24    10.0   1_545     S
V45     V43    10.0   1_556     S
V46     V47    10.0   .     S
V46     V48    10.0   1_554     S
V47     V48    10.0   .     S
V48     V46    10.0   1_556     S
