data_svi-x
_audit_creation_date              2019-12-31
_audit_creation_method            'Pymatgen'
_symmetry_space_group_name_H-M    'P1'
_symmetry_Int_Tables_number       1
loop_
_symmetry_equiv_pos_as_xyz
  x,y,z
_cell_length_a                    38.5794
_cell_length_b                    38.5794
_cell_length_c                    32.7498
_cell_angle_alpha                 90.0
_cell_angle_beta                 90.0
_cell_angle_gamma                 90.0
loop_
_atom_site_label
_atom_site_type_symbol
_atom_site_fract_x
_atom_site_fract_y
_atom_site_fract_z
V1     V     0.4181   0.1681   0.25
V2     V     0.4181   0.1681   0.75
V3     V     0.4181   0.6681   0.25
V4     V     0.4181   0.6681   0.75
V5     V     0.9181   0.1681   0.25
V6     V     0.9181   0.1681   0.75
V7     V     0.9181   0.6681   0.25
V8     V     0.9181   0.6681   0.75
V9     V     0.0819   0.3319   0.25
V10     V     0.0819   0.3319   0.75
V11     V     0.0819   0.8319   0.25
V12     V     0.0819   0.8319   0.75
V13     V     0.5819   0.3319   0.25
V14     V     0.5819   0.3319   0.75
V15     V     0.5819   0.8319   0.25
V16     V     0.5819   0.8319   0.75
V17     V     0.3319   0.0819   0.0
V18     V     0.3319   0.0819   0.5
V19     V     0.3319   0.5819   0.0
V20     V     0.3319   0.5819   0.5
V21     V     0.8319   0.0819   0.0
V22     V     0.8319   0.0819   0.5
V23     V     0.8319   0.5819   0.0
V24     V     0.8319   0.5819   0.5
V25     V     0.1681   0.4181   0.0
V26     V     0.1681   0.4181   0.5
V27     V     0.1681   0.9181   0.0
V28     V     0.1681   0.9181   0.5
V29     V     0.6681   0.4181   0.0
V30     V     0.6681   0.4181   0.5
V31     V     0.6681   0.9181   0.0
V32     V     0.6681   0.9181   0.5
V33     V     0.3319   0.4181   0.25
V34     V     0.3319   0.4181   0.75
V35     V     0.3319   0.9181   0.25
V36     V     0.3319   0.9181   0.75
V37     V     0.8319   0.4181   0.25
V38     V     0.8319   0.4181   0.75
V39     V     0.8319   0.9181   0.25
V40     V     0.8319   0.9181   0.75
V41     V     0.1681   0.0819   0.25
V42     V     0.1681   0.0819   0.75
V43     V     0.1681   0.5819   0.25
V44     V     0.1681   0.5819   0.75
V45     V     0.6681   0.0819   0.25
V46     V     0.6681   0.0819   0.75
V47     V     0.6681   0.5819   0.25
V48     V     0.6681   0.5819   0.75
V49     V     0.4181   0.3319   0.0
V50     V     0.4181   0.3319   0.5
V51     V     0.4181   0.8319   0.0
V52     V     0.4181   0.8319   0.5
V53     V     0.9181   0.3319   0.0
V54     V     0.9181   0.3319   0.5
V55     V     0.9181   0.8319   0.0
V56     V     0.9181   0.8319   0.5
V57     V     0.0819   0.1681   0.0
V58     V     0.0819   0.1681   0.5
V59     V     0.0819   0.6681   0.0
V60     V     0.0819   0.6681   0.5
V61     V     0.5819   0.1681   0.0
V62     V     0.5819   0.1681   0.5
V63     V     0.5819   0.6681   0.0
V64     V     0.5819   0.6681   0.5
loop_
_geom_bond_atom_site_label_1
_geom_bond_atom_site_label_2
_geom_bond_distance
_geom_bond_site_symmetry_2
_ccdc_geom_bond_type
V1     V33    10.202   .     S
V1     V45    10.202   .     S
V1     V35    10.202   1_545     S
V1     V41    10.202   .     S
V1     V18    9.442   .     S
V1     V17    9.442   .     S
V1     V49    10.343   .     S
V1     V61    10.343   .     S
V1     V50    10.343   .     S
V1     V62    10.343   .     S
V1     V13    8.937   .     S
V2     V34    10.202   .     S
V2     V46    10.202   .     S
V2     V36    10.202   1_545     S
V2     V42    10.202   .     S
V2     V17    9.442   1_556     S
V2     V18    9.442   .     S
V2     V50    10.343   .     S
V2     V62    10.343   .     S
V2     V49    10.343   1_556     S
V2     V61    10.343   1_556     S
V2     V14    8.937   .     S
V3     V35    10.202   .     S
V3     V47    10.202   .     S
V3     V33    10.202   .     S
V3     V43    10.202   .     S
V3     V20    9.442   .     S
V3     V19    9.442   .     S
V3     V51    10.343   .     S
V3     V63    10.343   .     S
V3     V52    10.343   .     S
V3     V64    10.343   .     S
V3     V15    8.937   .     S
V4     V36    10.202   .     S
V4     V48    10.202   .     S
V4     V34    10.202   .     S
V4     V44    10.202   .     S
V4     V19    9.442   1_556     S
V4     V20    9.442   .     S
V4     V52    10.343   .     S
V4     V64    10.343   .     S
V4     V51    10.343   1_556     S
V4     V63    10.343   1_556     S
V4     V16    8.937   .     S
V5     V37    10.202   .     S
V5     V41    10.202   1_655     S
V5     V39    10.202   1_545     S
V5     V45    10.202   .     S
V5     V22    9.442   .     S
V5     V21    9.442   .     S
V5     V53    10.343   .     S
V5     V57    10.343   1_655     S
V5     V54    10.343   .     S
V5     V58    10.343   1_655     S
V5     V9    8.937   1_655     S
V6     V38    10.202   .     S
V6     V42    10.202   1_655     S
V6     V40    10.202   1_545     S
V6     V46    10.202   .     S
V6     V21    9.442   1_556     S
V6     V22    9.442   .     S
V6     V54    10.343   .     S
V6     V58    10.343   1_655     S
V6     V53    10.343   1_556     S
V6     V57    10.343   1_656     S
V6     V10    8.937   1_655     S
V7     V39    10.202   .     S
V7     V43    10.202   1_655     S
V7     V37    10.202   .     S
V7     V47    10.202   .     S
V7     V24    9.442   .     S
V7     V23    9.442   .     S
V7     V55    10.343   .     S
V7     V59    10.343   1_655     S
V7     V56    10.343   .     S
V7     V60    10.343   1_655     S
V7     V11    8.937   1_655     S
V8     V40    10.202   .     S
V8     V44    10.202   1_655     S
V8     V38    10.202   .     S
V8     V48    10.202   .     S
V8     V23    9.442   1_556     S
V8     V24    9.442   .     S
V8     V56    10.343   .     S
V8     V60    10.343   1_655     S
V8     V55    10.343   1_556     S
V8     V59    10.343   1_656     S
V8     V12    8.937   1_655     S
V9     V37    10.202   1_455     S
V9     V41    10.202   .     S
V9     V43    10.202   .     S
V9     V33    10.202   .     S
V9     V26    9.442   .     S
V9     V25    9.442   .     S
V9     V53    10.343   1_455     S
V9     V57    10.343   .     S
V9     V54    10.343   1_455     S
V9     V58    10.343   .     S
V9     V5    8.937   1_455     S
V10     V38    10.202   1_455     S
V10     V42    10.202   .     S
V10     V44    10.202   .     S
V10     V34    10.202   .     S
V10     V25    9.442   1_556     S
V10     V26    9.442   .     S
V10     V54    10.343   1_455     S
V10     V58    10.343   .     S
V10     V53    10.343   1_456     S
V10     V57    10.343   1_556     S
V10     V6    8.937   1_455     S
V11     V39    10.202   1_455     S
V11     V43    10.202   .     S
V11     V41    10.202   1_565     S
V11     V35    10.202   .     S
V11     V28    9.442   .     S
V11     V27    9.442   .     S
V11     V55    10.343   1_455     S
V11     V59    10.343   .     S
V11     V56    10.343   1_455     S
V11     V60    10.343   .     S
V11     V7    8.937   1_455     S
V12     V40    10.202   1_455     S
V12     V44    10.202   .     S
V12     V42    10.202   1_565     S
V12     V36    10.202   .     S
V12     V27    9.442   1_556     S
V12     V28    9.442   .     S
V12     V56    10.343   1_455     S
V12     V60    10.343   .     S
V12     V55    10.343   1_456     S
V12     V59    10.343   1_556     S
V12     V8    8.937   1_455     S
V13     V33    10.202   .     S
V13     V45    10.202   .     S
V13     V47    10.202   .     S
V13     V37    10.202   .     S
V13     V30    9.442   .     S
V13     V29    9.442   .     S
V13     V49    10.343   .     S
V13     V61    10.343   .     S
V13     V50    10.343   .     S
V13     V62    10.343   .     S
V14     V34    10.202   .     S
V14     V46    10.202   .     S
V14     V48    10.202   .     S
V14     V38    10.202   .     S
V14     V29    9.442   1_556     S
V14     V30    9.442   .     S
V14     V50    10.343   .     S
V14     V62    10.343   .     S
V14     V49    10.343   1_556     S
V14     V61    10.343   1_556     S
V15     V35    10.202   .     S
V15     V47    10.202   .     S
V15     V45    10.202   1_565     S
V15     V39    10.202   .     S
V15     V32    9.442   .     S
V15     V31    9.442   .     S
V15     V51    10.343   .     S
V15     V63    10.343   .     S
V15     V52    10.343   .     S
V15     V64    10.343   .     S
V16     V36    10.202   .     S
V16     V48    10.202   .     S
V16     V46    10.202   1_565     S
V16     V40    10.202   .     S
V16     V31    9.442   1_556     S
V16     V32    9.442   .     S
V16     V52    10.343   .     S
V16     V64    10.343   .     S
V16     V51    10.343   1_556     S
V16     V63    10.343   1_556     S
V17     V61    10.202   .     S
V17     V49    10.202   .     S
V17     V51    10.202   1_545     S
V17     V57    10.202   .     S
V17     V2    9.442   1_554     S
V17     V35    10.343   1_545     S
V17     V41    10.343   .     S
V17     V36    10.343   1_544     S
V17     V42    10.343   1_554     S
V17     V27    8.937   1_545     S
V18     V62    10.202   .     S
V18     V50    10.202   .     S
V18     V52    10.202   1_545     S
V18     V58    10.202   .     S
V18     V36    10.343   1_545     S
V18     V42    10.343   .     S
V18     V35    10.343   1_545     S
V18     V41    10.343   .     S
V18     V28    8.937   1_545     S
V19     V63    10.202   .     S
V19     V51    10.202   .     S
V19     V49    10.202   .     S
V19     V59    10.202   .     S
V19     V4    9.442   1_554     S
V19     V33    10.343   .     S
V19     V43    10.343   .     S
V19     V34    10.343   1_554     S
V19     V44    10.343   1_554     S
V19     V25    8.937   .     S
V20     V64    10.202   .     S
V20     V52    10.202   .     S
V20     V50    10.202   .     S
V20     V60    10.202   .     S
V20     V34    10.343   .     S
V20     V44    10.343   .     S
V20     V33    10.343   .     S
V20     V43    10.343   .     S
V20     V26    8.937   .     S
V21     V57    10.202   1_655     S
V21     V53    10.202   .     S
V21     V55    10.202   1_545     S
V21     V61    10.202   .     S
V21     V6    9.442   1_554     S
V21     V39    10.343   1_545     S
V21     V45    10.343   .     S
V21     V40    10.343   1_544     S
V21     V46    10.343   1_554     S
V21     V31    8.937   1_545     S
V22     V58    10.202   1_655     S
V22     V54    10.202   .     S
V22     V56    10.202   1_545     S
V22     V62    10.202   .     S
V22     V40    10.343   1_545     S
V22     V46    10.343   .     S
V22     V39    10.343   1_545     S
V22     V45    10.343   .     S
V22     V32    8.937   1_545     S
V23     V59    10.202   1_655     S
V23     V55    10.202   .     S
V23     V53    10.202   .     S
V23     V63    10.202   .     S
V23     V8    9.442   1_554     S
V23     V37    10.343   .     S
V23     V47    10.343   .     S
V23     V38    10.343   1_554     S
V23     V48    10.343   1_554     S
V23     V29    8.937   .     S
V24     V60    10.202   1_655     S
V24     V56    10.202   .     S
V24     V54    10.202   .     S
V24     V64    10.202   .     S
V24     V38    10.343   .     S
V24     V48    10.343   .     S
V24     V37    10.343   .     S
V24     V47    10.343   .     S
V24     V30    8.937   .     S
V25     V53    10.202   1_455     S
V25     V57    10.202   .     S
V25     V49    10.202   .     S
V25     V59    10.202   .     S
V25     V10    9.442   1_554     S
V25     V33    10.343   .     S
V25     V43    10.343   .     S
V25     V34    10.343   1_554     S
V25     V44    10.343   1_554     S
V26     V54    10.202   1_455     S
V26     V58    10.202   .     S
V26     V50    10.202   .     S
V26     V60    10.202   .     S
V26     V34    10.343   .     S
V26     V44    10.343   .     S
V26     V33    10.343   .     S
V26     V43    10.343   .     S
V27     V55    10.202   1_455     S
V27     V59    10.202   .     S
V27     V51    10.202   .     S
V27     V57    10.202   1_565     S
V27     V12    9.442   1_554     S
V27     V35    10.343   .     S
V27     V41    10.343   1_565     S
V27     V36    10.343   1_554     S
V27     V42    10.343   1_564     S
V27     V17    8.937   1_565     S
V28     V56    10.202   1_455     S
V28     V60    10.202   .     S
V28     V52    10.202   .     S
V28     V58    10.202   1_565     S
V28     V36    10.343   .     S
V28     V42    10.343   1_565     S
V28     V35    10.343   .     S
V28     V41    10.343   1_565     S
V28     V18    8.937   1_565     S
V29     V49    10.202   .     S
V29     V61    10.202   .     S
V29     V53    10.202   .     S
V29     V63    10.202   .     S
V29     V14    9.442   1_554     S
V29     V37    10.343   .     S
V29     V47    10.343   .     S
V29     V38    10.343   1_554     S
V29     V48    10.343   1_554     S
V30     V50    10.202   .     S
V30     V62    10.202   .     S
V30     V54    10.202   .     S
V30     V64    10.202   .     S
V30     V38    10.343   .     S
V30     V48    10.343   .     S
V30     V37    10.343   .     S
V30     V47    10.343   .     S
V31     V51    10.202   .     S
V31     V63    10.202   .     S
V31     V55    10.202   .     S
V31     V61    10.202   1_565     S
V31     V16    9.442   1_554     S
V31     V39    10.343   .     S
V31     V45    10.343   1_565     S
V31     V40    10.343   1_554     S
V31     V46    10.343   1_564     S
V31     V21    8.937   1_565     S
V32     V52    10.202   .     S
V32     V64    10.202   .     S
V32     V56    10.202   .     S
V32     V62    10.202   1_565     S
V32     V40    10.343   .     S
V32     V46    10.343   1_565     S
V32     V39    10.343   .     S
V32     V45    10.343   1_565     S
V32     V22    8.937   1_565     S
V33     V50    9.442   .     S
V33     V49    9.442   .     S
V33     V43    8.937   .     S
V34     V49    9.442   1_556     S
V34     V50    9.442   .     S
V34     V25    10.343   1_556     S
V34     V19    10.343   1_556     S
V34     V44    8.937   .     S
V35     V1    10.202   1_565     S
V35     V52    9.442   .     S
V35     V51    9.442   .     S
V35     V17    10.343   1_565     S
V35     V18    10.343   1_565     S
V35     V41    8.937   1_565     S
V36     V2    10.202   1_565     S
V36     V51    9.442   1_556     S
V36     V52    9.442   .     S
V36     V18    10.343   1_565     S
V36     V27    10.343   1_556     S
V36     V17    10.343   1_566     S
V36     V42    8.937   1_565     S
V37     V9    10.202   1_655     S
V37     V54    9.442   .     S
V37     V53    9.442   .     S
V37     V47    8.937   .     S
V38     V10    10.202   1_655     S
V38     V53    9.442   1_556     S
V38     V54    9.442   .     S
V38     V29    10.343   1_556     S
V38     V23    10.343   1_556     S
V38     V48    8.937   .     S
V39     V11    10.202   1_655     S
V39     V5    10.202   1_565     S
V39     V56    9.442   .     S
V39     V55    9.442   .     S
V39     V21    10.343   1_565     S
V39     V22    10.343   1_565     S
V39     V45    8.937   1_565     S
V40     V12    10.202   1_655     S
V40     V6    10.202   1_565     S
V40     V55    9.442   1_556     S
V40     V56    9.442   .     S
V40     V22    10.343   1_565     S
V40     V31    10.343   1_556     S
V40     V21    10.343   1_566     S
V40     V46    8.937   1_565     S
V41     V5    10.202   1_455     S
V41     V11    10.202   1_545     S
V41     V58    9.442   .     S
V41     V57    9.442   .     S
V41     V27    10.343   1_545     S
V41     V28    10.343   1_545     S
V41     V35    8.937   1_545     S
V42     V6    10.202   1_455     S
V42     V12    10.202   1_545     S
V42     V57    9.442   1_556     S
V42     V58    9.442   .     S
V42     V28    10.343   1_545     S
V42     V17    10.343   1_556     S
V42     V27    10.343   1_546     S
V42     V36    8.937   1_545     S
V43     V7    10.202   1_455     S
V43     V60    9.442   .     S
V43     V59    9.442   .     S
V44     V8    10.202   1_455     S
V44     V59    9.442   1_556     S
V44     V60    9.442   .     S
V44     V19    10.343   1_556     S
V44     V25    10.343   1_556     S
V45     V15    10.202   1_545     S
V45     V62    9.442   .     S
V45     V61    9.442   .     S
V45     V31    10.343   1_545     S
V45     V32    10.343   1_545     S
V45     V39    8.937   1_545     S
V46     V16    10.202   1_545     S
V46     V61    9.442   1_556     S
V46     V62    9.442   .     S
V46     V32    10.343   1_545     S
V46     V21    10.343   1_556     S
V46     V31    10.343   1_546     S
V46     V40    8.937   1_545     S
V47     V64    9.442   .     S
V47     V63    9.442   .     S
V48     V63    9.442   1_556     S
V48     V64    9.442   .     S
V48     V23    10.343   1_556     S
V48     V29    10.343   1_556     S
V49     V34    9.442   1_554     S
V49     V2    10.343   1_554     S
V49     V14    10.343   1_554     S
V49     V61    8.937   .     S
V50     V62    8.937   .     S
V51     V17    10.202   1_565     S
V51     V36    9.442   1_554     S
V51     V4    10.343   1_554     S
V51     V16    10.343   1_554     S
V51     V63    8.937   .     S
V52     V18    10.202   1_565     S
V52     V64    8.937   .     S
V53     V25    10.202   1_655     S
V53     V38    9.442   1_554     S
V53     V9    10.343   1_655     S
V53     V6    10.343   1_554     S
V53     V10    10.343   1_654     S
V53     V57    8.937   1_655     S
V54     V26    10.202   1_655     S
V54     V10    10.343   1_655     S
V54     V9    10.343   1_655     S
V54     V58    8.937   1_655     S
V55     V27    10.202   1_655     S
V55     V21    10.202   1_565     S
V55     V40    9.442   1_554     S
V55     V11    10.343   1_655     S
V55     V8    10.343   1_554     S
V55     V12    10.343   1_654     S
V55     V59    8.937   1_655     S
V56     V28    10.202   1_655     S
V56     V22    10.202   1_565     S
V56     V12    10.343   1_655     S
V56     V11    10.343   1_655     S
V56     V60    8.937   1_655     S
V57     V21    10.202   1_455     S
V57     V27    10.202   1_545     S
V57     V42    9.442   1_554     S
V57     V5    10.343   1_455     S
V57     V10    10.343   1_554     S
V57     V6    10.343   1_454     S
V57     V53    8.937   1_455     S
V58     V22    10.202   1_455     S
V58     V28    10.202   1_545     S
V58     V6    10.343   1_455     S
V58     V5    10.343   1_455     S
V58     V54    8.937   1_455     S
V59     V23    10.202   1_455     S
V59     V44    9.442   1_554     S
V59     V7    10.343   1_455     S
V59     V12    10.343   1_554     S
V59     V8    10.343   1_454     S
V59     V55    8.937   1_455     S
V60     V24    10.202   1_455     S
V60     V8    10.343   1_455     S
V60     V7    10.343   1_455     S
V60     V56    8.937   1_455     S
V61     V31    10.202   1_545     S
V61     V46    9.442   1_554     S
V61     V14    10.343   1_554     S
V61     V2    10.343   1_554     S
V62     V32    10.202   1_545     S
V63     V48    9.442   1_554     S
V63     V16    10.343   1_554     S
V63     V4    10.343   1_554     S
