data_svn
_audit_creation_date              2019-12-31
_audit_creation_method            'Pymatgen'
_symmetry_space_group_name_H-M    'P1'
_symmetry_Int_Tables_number       1
loop_
_symmetry_equiv_pos_as_xyz
  x,y,z
_cell_length_a                    37.3668
_cell_length_b                    37.3668
_cell_length_c                    37.3668
_cell_angle_alpha                 90.0
_cell_angle_beta                 90.0
_cell_angle_gamma                 90.0
loop_
_atom_site_label
_atom_site_type_symbol
_atom_site_fract_x
_atom_site_fract_y
_atom_site_fract_z
V1     V     0.1727   0.0773   0.4227
V2     V     0.1727   0.0773   0.9227
V3     V     0.1727   0.5773   0.4227
V4     V     0.1727   0.5773   0.9227
V5     V     0.6727   0.0773   0.4227
V6     V     0.6727   0.0773   0.9227
V7     V     0.6727   0.5773   0.4227
V8     V     0.6727   0.5773   0.9227
V9     V     0.4227   0.1727   0.0773
V10     V     0.4227   0.1727   0.5773
V11     V     0.4227   0.6727   0.0773
V12     V     0.4227   0.6727   0.5773
V13     V     0.9227   0.1727   0.0773
V14     V     0.9227   0.1727   0.5773
V15     V     0.9227   0.6727   0.0773
V16     V     0.9227   0.6727   0.5773
V17     V     0.3273   0.4227   0.0773
V18     V     0.3273   0.4227   0.5773
V19     V     0.3273   0.9227   0.0773
V20     V     0.3273   0.9227   0.5773
V21     V     0.8273   0.4227   0.0773
V22     V     0.8273   0.4227   0.5773
V23     V     0.8273   0.9227   0.0773
V24     V     0.8273   0.9227   0.5773
V25     V     0.4227   0.0773   0.3273
V26     V     0.4227   0.0773   0.8273
V27     V     0.4227   0.5773   0.3273
V28     V     0.4227   0.5773   0.8273
V29     V     0.9227   0.0773   0.3273
V30     V     0.9227   0.0773   0.8273
V31     V     0.9227   0.5773   0.3273
V32     V     0.9227   0.5773   0.8273
V33     V     0.0773   0.3273   0.4227
V34     V     0.0773   0.3273   0.9227
V35     V     0.0773   0.8273   0.4227
V36     V     0.0773   0.8273   0.9227
V37     V     0.5773   0.3273   0.4227
V38     V     0.5773   0.3273   0.9227
V39     V     0.5773   0.8273   0.4227
V40     V     0.5773   0.8273   0.9227
V41     V     0.0773   0.4227   0.1727
V42     V     0.0773   0.4227   0.6727
V43     V     0.0773   0.9227   0.1727
V44     V     0.0773   0.9227   0.6727
V45     V     0.5773   0.4227   0.1727
V46     V     0.5773   0.4227   0.6727
V47     V     0.5773   0.9227   0.1727
V48     V     0.5773   0.9227   0.6727
V49     V     0.1727   0.1727   0.1727
V50     V     0.1727   0.1727   0.6727
V51     V     0.1727   0.6727   0.1727
V52     V     0.1727   0.6727   0.6727
V53     V     0.6727   0.1727   0.1727
V54     V     0.6727   0.1727   0.6727
V55     V     0.6727   0.6727   0.1727
V56     V     0.6727   0.6727   0.6727
V57     V     0.3273   0.3273   0.3273
V58     V     0.3273   0.3273   0.8273
V59     V     0.3273   0.8273   0.3273
V60     V     0.3273   0.8273   0.8273
V61     V     0.8273   0.3273   0.3273
V62     V     0.8273   0.3273   0.8273
V63     V     0.8273   0.8273   0.3273
V64     V     0.8273   0.8273   0.8273
loop_
_geom_bond_atom_site_label_1
_geom_bond_atom_site_label_2
_geom_bond_distance
_geom_bond_site_symmetry_2
_ccdc_geom_bond_type
V1     V25    10.0   .     S
V1     V49    10.0   .     S
V1     V50    10.0   .     S
V1     V35    10.0   1_545     S
V1     V33    10.0   .     S
V1     V29    10.0   1_455     S
V1     V20    10.0   1_545     S
V2     V26    10.0   .     S
V2     V50    10.0   .     S
V2     V49    10.0   1_556     S
V2     V36    10.0   1_545     S
V2     V34    10.0   .     S
V2     V30    10.0   1_455     S
V2     V19    10.0   1_546     S
V3     V27    10.0   .     S
V3     V51    10.0   .     S
V3     V52    10.0   .     S
V3     V33    10.0   .     S
V3     V35    10.0   .     S
V3     V31    10.0   1_455     S
V3     V18    10.0   .     S
V4     V28    10.0   .     S
V4     V52    10.0   .     S
V4     V51    10.0   1_556     S
V4     V34    10.0   .     S
V4     V36    10.0   .     S
V4     V32    10.0   1_455     S
V4     V17    10.0   1_556     S
V5     V29    10.0   .     S
V5     V53    10.0   .     S
V5     V54    10.0   .     S
V5     V39    10.0   1_545     S
V5     V37    10.0   .     S
V5     V25    10.0   .     S
V5     V24    10.0   1_545     S
V6     V30    10.0   .     S
V6     V54    10.0   .     S
V6     V53    10.0   1_556     S
V6     V40    10.0   1_545     S
V6     V38    10.0   .     S
V6     V26    10.0   .     S
V6     V23    10.0   1_546     S
V7     V31    10.0   .     S
V7     V55    10.0   .     S
V7     V56    10.0   .     S
V7     V37    10.0   .     S
V7     V39    10.0   .     S
V7     V27    10.0   .     S
V7     V22    10.0   .     S
V8     V32    10.0   .     S
V8     V56    10.0   .     S
V8     V55    10.0   1_556     S
V8     V38    10.0   .     S
V8     V40    10.0   .     S
V8     V28    10.0   .     S
V8     V21    10.0   1_556     S
V9     V17    10.0   .     S
V9     V49    10.0   .     S
V9     V53    10.0   .     S
V9     V26    10.0   1_554     S
V9     V19    10.0   1_545     S
V9     V25    10.0   .     S
V9     V38    10.0   1_554     S
V10     V18    10.0   .     S
V10     V50    10.0   .     S
V10     V54    10.0   .     S
V10     V25    10.0   .     S
V10     V20    10.0   1_545     S
V10     V26    10.0   .     S
V10     V37    10.0   .     S
V11     V19    10.0   .     S
V11     V51    10.0   .     S
V11     V55    10.0   .     S
V11     V28    10.0   1_554     S
V11     V17    10.0   .     S
V11     V27    10.0   .     S
V11     V40    10.0   1_554     S
V12     V20    10.0   .     S
V12     V52    10.0   .     S
V12     V56    10.0   .     S
V12     V27    10.0   .     S
V12     V18    10.0   .     S
V12     V28    10.0   .     S
V12     V39    10.0   .     S
V13     V21    10.0   .     S
V13     V53    10.0   .     S
V13     V49    10.0   1_655     S
V13     V30    10.0   1_554     S
V13     V23    10.0   1_545     S
V13     V29    10.0   .     S
V13     V34    10.0   1_654     S
V14     V22    10.0   .     S
V14     V54    10.0   .     S
V14     V50    10.0   1_655     S
V14     V29    10.0   .     S
V14     V24    10.0   1_545     S
V14     V30    10.0   .     S
V14     V33    10.0   1_655     S
V15     V23    10.0   .     S
V15     V55    10.0   .     S
V15     V51    10.0   1_655     S
V15     V32    10.0   1_554     S
V15     V21    10.0   .     S
V15     V31    10.0   .     S
V15     V36    10.0   1_654     S
V16     V24    10.0   .     S
V16     V56    10.0   .     S
V16     V52    10.0   1_655     S
V16     V31    10.0   .     S
V16     V22    10.0   .     S
V16     V32    10.0   .     S
V16     V35    10.0   1_655     S
V17     V57    10.0   .     S
V17     V45    10.0   .     S
V17     V58    10.0   1_554     S
V17     V41    10.0   .     S
V17     V4    10.0   1_554     S
V18     V58    10.0   .     S
V18     V46    10.0   .     S
V18     V57    10.0   .     S
V18     V42    10.0   .     S
V19     V59    10.0   .     S
V19     V47    10.0   .     S
V19     V9    10.0   1_565     S
V19     V60    10.0   1_554     S
V19     V43    10.0   .     S
V19     V2    10.0   1_564     S
V20     V60    10.0   .     S
V20     V48    10.0   .     S
V20     V10    10.0   1_565     S
V20     V59    10.0   .     S
V20     V44    10.0   .     S
V20     V1    10.0   1_565     S
V21     V61    10.0   .     S
V21     V41    10.0   1_655     S
V21     V62    10.0   1_554     S
V21     V45    10.0   .     S
V21     V8    10.0   1_554     S
V22     V62    10.0   .     S
V22     V42    10.0   1_655     S
V22     V61    10.0   .     S
V22     V46    10.0   .     S
V23     V63    10.0   .     S
V23     V43    10.0   1_655     S
V23     V13    10.0   1_565     S
V23     V64    10.0   1_554     S
V23     V47    10.0   .     S
V23     V6    10.0   1_564     S
V24     V64    10.0   .     S
V24     V44    10.0   1_655     S
V24     V14    10.0   1_565     S
V24     V63    10.0   .     S
V24     V48    10.0   .     S
V24     V5    10.0   1_565     S
V25     V57    10.0   .     S
V25     V59    10.0   1_545     S
V25     V47    10.0   1_545     S
V26     V58    10.0   .     S
V26     V9    10.0   1_556     S
V26     V60    10.0   1_545     S
V26     V48    10.0   1_545     S
V27     V59    10.0   .     S
V27     V57    10.0   .     S
V27     V45    10.0   .     S
V28     V60    10.0   .     S
V28     V11    10.0   1_556     S
V28     V58    10.0   .     S
V28     V46    10.0   .     S
V29     V61    10.0   .     S
V29     V63    10.0   1_545     S
V29     V1    10.0   1_655     S
V29     V43    10.0   1_645     S
V30     V62    10.0   .     S
V30     V13    10.0   1_556     S
V30     V64    10.0   1_545     S
V30     V2    10.0   1_655     S
V30     V44    10.0   1_645     S
V31     V63    10.0   .     S
V31     V61    10.0   .     S
V31     V3    10.0   1_655     S
V31     V41    10.0   1_655     S
V32     V64    10.0   .     S
V32     V15    10.0   1_556     S
V32     V62    10.0   .     S
V32     V4    10.0   1_655     S
V32     V42    10.0   1_655     S
V33     V57    10.0   .     S
V33     V41    10.0   .     S
V33     V42    10.0   .     S
V33     V61    10.0   1_455     S
V33     V14    10.0   1_455     S
V34     V58    10.0   .     S
V34     V42    10.0   .     S
V34     V41    10.0   1_556     S
V34     V62    10.0   1_455     S
V34     V13    10.0   1_456     S
V35     V59    10.0   .     S
V35     V43    10.0   .     S
V35     V1    10.0   1_565     S
V35     V44    10.0   .     S
V35     V63    10.0   1_455     S
V35     V16    10.0   1_455     S
V36     V60    10.0   .     S
V36     V44    10.0   .     S
V36     V2    10.0   1_565     S
V36     V43    10.0   1_556     S
V36     V64    10.0   1_455     S
V36     V15    10.0   1_456     S
V37     V61    10.0   .     S
V37     V45    10.0   .     S
V37     V46    10.0   .     S
V37     V57    10.0   .     S
V38     V62    10.0   .     S
V38     V46    10.0   .     S
V38     V45    10.0   1_556     S
V38     V58    10.0   .     S
V38     V9    10.0   1_556     S
V39     V63    10.0   .     S
V39     V47    10.0   .     S
V39     V5    10.0   1_565     S
V39     V48    10.0   .     S
V39     V59    10.0   .     S
V40     V64    10.0   .     S
V40     V48    10.0   .     S
V40     V6    10.0   1_565     S
V40     V47    10.0   1_556     S
V40     V60    10.0   .     S
V40     V11    10.0   1_556     S
V41     V49    10.0   .     S
V41     V51    10.0   .     S
V41     V21    10.0   1_455     S
V41     V34    10.0   1_554     S
V41     V31    10.0   1_455     S
V42     V50    10.0   .     S
V42     V52    10.0   .     S
V42     V22    10.0   1_455     S
V42     V32    10.0   1_455     S
V43     V51    10.0   .     S
V43     V49    10.0   1_565     S
V43     V23    10.0   1_455     S
V43     V36    10.0   1_554     S
V43     V29    10.0   1_465     S
V44     V52    10.0   .     S
V44     V50    10.0   1_565     S
V44     V24    10.0   1_455     S
V44     V30    10.0   1_465     S
V45     V53    10.0   .     S
V45     V55    10.0   .     S
V45     V38    10.0   1_554     S
V46     V54    10.0   .     S
V46     V56    10.0   .     S
V47     V55    10.0   .     S
V47     V53    10.0   1_565     S
V47     V40    10.0   1_554     S
V47     V25    10.0   1_565     S
V48     V56    10.0   .     S
V48     V54    10.0   1_565     S
V48     V26    10.0   1_565     S
V49     V43    10.0   1_545     S
V49     V2    10.0   1_554     S
V49     V13    10.0   1_455     S
V49     V57    10.0   .     S
V50     V44    10.0   1_545     S
V50     V14    10.0   1_455     S
V50     V58    10.0   .     S
V51     V4    10.0   1_554     S
V51     V15    10.0   1_455     S
V51     V59    10.0   .     S
V52     V16    10.0   1_455     S
V52     V60    10.0   .     S
V53     V47    10.0   1_545     S
V53     V6    10.0   1_554     S
V53     V61    10.0   .     S
V54     V48    10.0   1_545     S
V54     V62    10.0   .     S
V55     V8    10.0   1_554     S
V55     V63    10.0   .     S
V56     V64    10.0   .     S
V58     V17    10.0   1_556     S
V59     V25    10.0   1_565     S
V60     V26    10.0   1_565     S
V60     V19    10.0   1_556     S
V61     V33    10.0   1_655     S
V62     V21    10.0   1_556     S
V62     V34    10.0   1_655     S
V63     V29    10.0   1_565     S
V63     V35    10.0   1_655     S
V64     V30    10.0   1_565     S
V64     V23    10.0   1_556     S
V64     V36    10.0   1_655     S
