data_svo
_audit_creation_date              2019-12-31
_audit_creation_method            'Pymatgen'
_symmetry_space_group_name_H-M    'P1'
_symmetry_Int_Tables_number       1
loop_
_symmetry_equiv_pos_as_xyz
  x,y,z
_cell_length_a                    38.637
_cell_length_b                    38.637
_cell_length_c                    38.612
_cell_angle_alpha                 90.0
_cell_angle_beta                 90.0
_cell_angle_gamma                 90.0
loop_
_atom_site_label
_atom_site_type_symbol
_atom_site_fract_x
_atom_site_fract_y
_atom_site_fract_z
V1     V     0.4085   0.1585   0.3705
V2     V     0.4085   0.6585   0.3705
V3     V     0.9085   0.1585   0.3705
V4     V     0.9085   0.6585   0.3705
V5     V     0.4085   0.1585   0.6295
V6     V     0.4085   0.6585   0.6295
V7     V     0.9085   0.1585   0.6295
V8     V     0.9085   0.6585   0.6295
V9     V     0.0915   0.3415   0.3705
V10     V     0.0915   0.8415   0.3705
V11     V     0.5915   0.3415   0.3705
V12     V     0.5915   0.8415   0.3705
V13     V     0.0915   0.3415   0.6295
V14     V     0.0915   0.8415   0.6295
V15     V     0.5915   0.3415   0.6295
V16     V     0.5915   0.8415   0.6295
V17     V     0.1585   0.0915   0.3705
V18     V     0.1585   0.5915   0.3705
V19     V     0.6585   0.0915   0.3705
V20     V     0.6585   0.5915   0.3705
V21     V     0.1585   0.0915   0.6295
V22     V     0.1585   0.5915   0.6295
V23     V     0.6585   0.0915   0.6295
V24     V     0.6585   0.5915   0.6295
V25     V     0.3415   0.4085   0.3705
V26     V     0.3415   0.9085   0.3705
V27     V     0.8415   0.4085   0.3705
V28     V     0.8415   0.9085   0.3705
V29     V     0.3415   0.4085   0.6295
V30     V     0.3415   0.9085   0.6295
V31     V     0.8415   0.4085   0.6295
V32     V     0.8415   0.9085   0.6295
V33     V     0.1585   0.4085   0.8705
V34     V     0.1585   0.9085   0.8705
V35     V     0.6585   0.4085   0.8705
V36     V     0.6585   0.9085   0.8705
V37     V     0.1585   0.4085   0.1295
V38     V     0.1585   0.9085   0.1295
V39     V     0.6585   0.4085   0.1295
V40     V     0.6585   0.9085   0.1295
V41     V     0.3415   0.0915   0.8705
V42     V     0.3415   0.5915   0.8705
V43     V     0.8415   0.0915   0.8705
V44     V     0.8415   0.5915   0.8705
V45     V     0.3415   0.0915   0.1295
V46     V     0.3415   0.5915   0.1295
V47     V     0.8415   0.0915   0.1295
V48     V     0.8415   0.5915   0.1295
V49     V     0.0915   0.1585   0.8705
V50     V     0.0915   0.6585   0.8705
V51     V     0.5915   0.1585   0.8705
V52     V     0.5915   0.6585   0.8705
V53     V     0.0915   0.1585   0.1295
V54     V     0.0915   0.6585   0.1295
V55     V     0.5915   0.1585   0.1295
V56     V     0.5915   0.6585   0.1295
V57     V     0.4085   0.3415   0.8705
V58     V     0.4085   0.8415   0.8705
V59     V     0.9085   0.3415   0.8705
V60     V     0.9085   0.8415   0.8705
V61     V     0.4085   0.3415   0.1295
V62     V     0.4085   0.8415   0.1295
V63     V     0.9085   0.3415   0.1295
V64     V     0.9085   0.8415   0.1295
loop_
_geom_bond_atom_site_label_1
_geom_bond_atom_site_label_2
_geom_bond_distance
_geom_bond_site_symmetry_2
_ccdc_geom_bond_type
V1     V25    10.0   .     S
V1     V26    10.0   1_545     S
V1     V17    10.0   .     S
V1     V5    10.0   .     S
V1     V11    10.0   .     S
V1     V19    10.0   .     S
V1     V45    10.0   .     S
V2     V26    10.0   .     S
V2     V25    10.0   .     S
V2     V18    10.0   .     S
V2     V6    10.0   .     S
V2     V12    10.0   .     S
V2     V20    10.0   .     S
V2     V46    10.0   .     S
V3     V27    10.0   .     S
V3     V28    10.0   1_545     S
V3     V19    10.0   .     S
V3     V7    10.0   .     S
V3     V9    10.0   1_655     S
V3     V17    10.0   1_655     S
V3     V47    10.0   .     S
V4     V28    10.0   .     S
V4     V27    10.0   .     S
V4     V20    10.0   .     S
V4     V8    10.0   .     S
V4     V10    10.0   1_655     S
V4     V18    10.0   1_655     S
V4     V48    10.0   .     S
V5     V29    10.0   .     S
V5     V30    10.0   1_545     S
V5     V21    10.0   .     S
V5     V15    10.0   .     S
V5     V23    10.0   .     S
V5     V41    10.0   .     S
V6     V30    10.0   .     S
V6     V29    10.0   .     S
V6     V22    10.0   .     S
V6     V16    10.0   .     S
V6     V24    10.0   .     S
V6     V42    10.0   .     S
V7     V31    10.0   .     S
V7     V32    10.0   1_545     S
V7     V23    10.0   .     S
V7     V13    10.0   1_655     S
V7     V21    10.0   1_655     S
V7     V43    10.0   .     S
V8     V32    10.0   .     S
V8     V31    10.0   .     S
V8     V24    10.0   .     S
V8     V14    10.0   1_655     S
V8     V22    10.0   1_655     S
V8     V44    10.0   .     S
V9     V27    10.0   1_455     S
V9     V18    10.0   .     S
V9     V25    10.0   .     S
V9     V13    10.0   .     S
V9     V3    10.0   1_455     S
V9     V17    10.0   .     S
V9     V37    10.0   .     S
V10     V28    10.0   1_455     S
V10     V17    10.0   1_565     S
V10     V26    10.0   .     S
V10     V14    10.0   .     S
V10     V4    10.0   1_455     S
V10     V18    10.0   .     S
V10     V38    10.0   .     S
V11     V25    10.0   .     S
V11     V20    10.0   .     S
V11     V27    10.0   .     S
V11     V15    10.0   .     S
V11     V19    10.0   .     S
V11     V39    10.0   .     S
V12     V26    10.0   .     S
V12     V19    10.0   1_565     S
V12     V28    10.0   .     S
V12     V16    10.0   .     S
V12     V20    10.0   .     S
V12     V40    10.0   .     S
V13     V22    10.0   .     S
V13     V29    10.0   .     S
V13     V31    10.0   1_455     S
V13     V7    10.0   1_455     S
V13     V21    10.0   .     S
V13     V33    10.0   .     S
V14     V21    10.0   1_565     S
V14     V30    10.0   .     S
V14     V32    10.0   1_455     S
V14     V8    10.0   1_455     S
V14     V22    10.0   .     S
V14     V34    10.0   .     S
V15     V24    10.0   .     S
V15     V31    10.0   .     S
V15     V29    10.0   .     S
V15     V23    10.0   .     S
V15     V35    10.0   .     S
V16     V23    10.0   1_565     S
V16     V32    10.0   .     S
V16     V30    10.0   .     S
V16     V24    10.0   .     S
V16     V36    10.0   .     S
V17     V10    10.0   1_545     S
V17     V3    10.0   1_455     S
V17     V21    10.0   .     S
V17     V26    10.0   1_545     S
V17     V53    10.0   .     S
V18     V4    10.0   1_455     S
V18     V22    10.0   .     S
V18     V25    10.0   .     S
V18     V54    10.0   .     S
V19     V12    10.0   1_545     S
V19     V23    10.0   .     S
V19     V28    10.0   1_545     S
V19     V55    10.0   .     S
V20     V24    10.0   .     S
V20     V27    10.0   .     S
V20     V56    10.0   .     S
V21     V14    10.0   1_545     S
V21     V7    10.0   1_455     S
V21     V30    10.0   1_545     S
V21     V49    10.0   .     S
V22     V8    10.0   1_455     S
V22     V29    10.0   .     S
V22     V50    10.0   .     S
V23     V16    10.0   1_545     S
V23     V32    10.0   1_545     S
V23     V51    10.0   .     S
V24     V31    10.0   .     S
V24     V52    10.0   .     S
V25     V29    10.0   .     S
V25     V61    10.0   .     S
V26     V1    10.0   1_565     S
V26     V30    10.0   .     S
V26     V17    10.0   1_565     S
V26     V62    10.0   .     S
V27     V9    10.0   1_655     S
V27     V31    10.0   .     S
V27     V63    10.0   .     S
V28     V10    10.0   1_655     S
V28     V3    10.0   1_565     S
V28     V32    10.0   .     S
V28     V19    10.0   1_565     S
V28     V64    10.0   .     S
V29     V57    10.0   .     S
V30     V5    10.0   1_565     S
V30     V21    10.0   1_565     S
V30     V58    10.0   .     S
V31     V13    10.0   1_655     S
V31     V59    10.0   .     S
V32     V14    10.0   1_655     S
V32     V7    10.0   1_565     S
V32     V23    10.0   1_565     S
V32     V60    10.0   .     S
V33     V59    10.0   1_455     S
V33     V49    10.0   .     S
V33     V57    10.0   .     S
V33     V37    10.0   1_556     S
V33     V42    10.0   .     S
V33     V50    10.0   .     S
V34     V60    10.0   1_455     S
V34     V50    10.0   .     S
V34     V58    10.0   .     S
V34     V38    10.0   1_556     S
V34     V41    10.0   1_565     S
V34     V49    10.0   1_565     S
V35     V57    10.0   .     S
V35     V51    10.0   .     S
V35     V59    10.0   .     S
V35     V39    10.0   1_556     S
V35     V44    10.0   .     S
V35     V52    10.0   .     S
V36     V58    10.0   .     S
V36     V52    10.0   .     S
V36     V60    10.0   .     S
V36     V40    10.0   1_556     S
V36     V43    10.0   1_565     S
V36     V51    10.0   1_565     S
V37     V63    10.0   1_455     S
V37     V53    10.0   .     S
V37     V61    10.0   .     S
V37     V33    10.0   1_554     S
V37     V46    10.0   .     S
V37     V54    10.0   .     S
V38     V64    10.0   1_455     S
V38     V54    10.0   .     S
V38     V62    10.0   .     S
V38     V34    10.0   1_554     S
V38     V45    10.0   1_565     S
V38     V53    10.0   1_565     S
V39     V61    10.0   .     S
V39     V55    10.0   .     S
V39     V63    10.0   .     S
V39     V35    10.0   1_554     S
V39     V48    10.0   .     S
V39     V56    10.0   .     S
V40     V62    10.0   .     S
V40     V56    10.0   .     S
V40     V64    10.0   .     S
V40     V36    10.0   1_554     S
V40     V47    10.0   1_565     S
V40     V55    10.0   1_565     S
V41     V51    10.0   .     S
V41     V57    10.0   .     S
V41     V58    10.0   1_545     S
V41     V45    10.0   1_556     S
V41     V34    10.0   1_545     S
V41     V49    10.0   .     S
V42     V52    10.0   .     S
V42     V58    10.0   .     S
V42     V57    10.0   .     S
V42     V46    10.0   1_556     S
V42     V50    10.0   .     S
V43     V49    10.0   1_655     S
V43     V59    10.0   .     S
V43     V60    10.0   1_545     S
V43     V47    10.0   1_556     S
V43     V36    10.0   1_545     S
V43     V51    10.0   .     S
V44     V50    10.0   1_655     S
V44     V60    10.0   .     S
V44     V59    10.0   .     S
V44     V48    10.0   1_556     S
V44     V52    10.0   .     S
V45     V62    10.0   1_545     S
V45     V55    10.0   .     S
V45     V61    10.0   .     S
V45     V41    10.0   1_554     S
V45     V38    10.0   1_545     S
V45     V53    10.0   .     S
V46     V61    10.0   .     S
V46     V56    10.0   .     S
V46     V62    10.0   .     S
V46     V42    10.0   1_554     S
V46     V54    10.0   .     S
V47     V64    10.0   1_545     S
V47     V53    10.0   1_655     S
V47     V63    10.0   .     S
V47     V43    10.0   1_554     S
V47     V40    10.0   1_545     S
V47     V55    10.0   .     S
V48     V63    10.0   .     S
V48     V54    10.0   1_655     S
V48     V64    10.0   .     S
V48     V44    10.0   1_554     S
V48     V56    10.0   .     S
V49     V43    10.0   1_455     S
V49     V34    10.0   1_545     S
V49     V53    10.0   1_556     S
V49     V59    10.0   1_455     S
V50     V44    10.0   1_455     S
V50     V54    10.0   1_556     S
V50     V60    10.0   1_455     S
V51     V36    10.0   1_545     S
V51     V55    10.0   1_556     S
V51     V57    10.0   .     S
V52     V56    10.0   1_556     S
V52     V58    10.0   .     S
V53     V47    10.0   1_455     S
V53     V38    10.0   1_545     S
V53     V49    10.0   1_554     S
V53     V63    10.0   1_455     S
V54     V48    10.0   1_455     S
V54     V50    10.0   1_554     S
V54     V64    10.0   1_455     S
V55     V40    10.0   1_545     S
V55     V51    10.0   1_554     S
V55     V61    10.0   .     S
V56     V52    10.0   1_554     S
V56     V62    10.0   .     S
V57     V61    10.0   1_556     S
V58     V41    10.0   1_565     S
V58     V62    10.0   1_556     S
V59     V33    10.0   1_655     S
V59     V63    10.0   1_556     S
V59     V49    10.0   1_655     S
V60     V34    10.0   1_655     S
V60     V43    10.0   1_565     S
V60     V64    10.0   1_556     S
V60     V50    10.0   1_655     S
V61     V57    10.0   1_554     S
V62     V45    10.0   1_565     S
V62     V58    10.0   1_554     S
V63     V37    10.0   1_655     S
V63     V59    10.0   1_554     S
V63     V53    10.0   1_655     S
V64     V38    10.0   1_655     S
V64     V47    10.0   1_565     S
V64     V60    10.0   1_554     S
V64     V54    10.0   1_655     S
