data_svp
_audit_creation_date              2019-12-31
_audit_creation_method            'Pymatgen'
_symmetry_space_group_name_H-M    'P1'
_symmetry_Int_Tables_number       1
loop_
_symmetry_equiv_pos_as_xyz
  x,y,z
_cell_length_a                    43.7102
_cell_length_b                    43.7102
_cell_length_c                    29.9997
_cell_angle_alpha                 90.0
_cell_angle_beta                 90.0
_cell_angle_gamma                 90.0
loop_
_atom_site_label
_atom_site_type_symbol
_atom_site_fract_x
_atom_site_fract_y
_atom_site_fract_z
V1     V     0.4009   0.2608   0.1667
V2     V     0.4009   0.2608   0.5
V3     V     0.4009   0.2608   0.8333
V4     V     0.5991   0.2608   0.0
V5     V     0.5991   0.2608   0.3333
V6     V     0.5991   0.2608   0.6667
V7     V     0.2608   0.4009   0.0
V8     V     0.2608   0.4009   0.3333
V9     V     0.2608   0.4009   0.6667
V10     V     0.2608   0.5991   0.1667
V11     V     0.2608   0.5991   0.5
V12     V     0.2608   0.5991   0.8333
V13     V     0.7392   0.4009   0.1667
V14     V     0.7392   0.4009   0.5
V15     V     0.7392   0.4009   0.8333
V16     V     0.7392   0.5991   0.0
V17     V     0.7392   0.5991   0.3333
V18     V     0.7392   0.5991   0.6667
V19     V     0.4009   0.7392   0.0
V20     V     0.4009   0.7392   0.3333
V21     V     0.4009   0.7392   0.6667
V22     V     0.5991   0.7392   0.1667
V23     V     0.5991   0.7392   0.5
V24     V     0.5991   0.7392   0.8333
V25     V     0.0991   0.7608   0.1667
V26     V     0.0991   0.7608   0.5
V27     V     0.0991   0.7608   0.8333
V28     V     0.9009   0.7608   0.0
V29     V     0.9009   0.7608   0.3333
V30     V     0.9009   0.7608   0.6667
V31     V     0.7608   0.0991   0.0
V32     V     0.7608   0.0991   0.3333
V33     V     0.7608   0.0991   0.6667
V34     V     0.7608   0.9009   0.1667
V35     V     0.7608   0.9009   0.5
V36     V     0.7608   0.9009   0.8333
V37     V     0.2392   0.0991   0.1667
V38     V     0.2392   0.0991   0.5
V39     V     0.2392   0.0991   0.8333
V40     V     0.2392   0.9009   0.0
V41     V     0.2392   0.9009   0.3333
V42     V     0.2392   0.9009   0.6667
V43     V     0.0991   0.2392   0.0
V44     V     0.0991   0.2392   0.3333
V45     V     0.0991   0.2392   0.6667
V46     V     0.9009   0.2392   0.1667
V47     V     0.9009   0.2392   0.5
V48     V     0.9009   0.2392   0.8333
loop_
_geom_bond_atom_site_label_1
_geom_bond_atom_site_label_2
_geom_bond_distance
_geom_bond_site_symmetry_2
_ccdc_geom_bond_type
V1     V5    10.0   .     S
V1     V3    10.0   1_554     S
V1     V2    10.0   .     S
V1     V4    10.0   .     S
V1     V8    10.0   .     S
V1     V7    10.0   .     S
V1     V37    10.001   .     S
V2     V6    10.0   .     S
V2     V3    10.0   .     S
V2     V5    10.0   .     S
V2     V9    10.0   .     S
V2     V8    10.0   .     S
V2     V38    10.001   .     S
V3     V4    10.0   1_556     S
V3     V1    10.0   1_556     S
V3     V6    10.0   .     S
V3     V7    10.0   1_556     S
V3     V9    10.0   .     S
V3     V39    10.001   .     S
V4     V3    10.0   1_554     S
V4     V5    10.0   .     S
V4     V6    10.0   1_554     S
V4     V15    10.0   1_554     S
V4     V13    10.0   .     S
V4     V31    10.001   .     S
V5     V6    10.0   .     S
V5     V13    10.0   .     S
V5     V14    10.0   .     S
V5     V32    10.001   .     S
V6     V4    10.0   1_556     S
V6     V14    10.0   .     S
V6     V15    10.0   .     S
V6     V33    10.001   .     S
V7     V3    10.0   1_554     S
V7     V12    10.0   1_554     S
V7     V8    10.0   .     S
V7     V9    10.0   1_554     S
V7     V10    10.0   .     S
V7     V43    10.001   .     S
V8     V10    10.0   .     S
V8     V9    10.0   .     S
V8     V11    10.0   .     S
V8     V44    10.001   .     S
V9     V11    10.0   .     S
V9     V7    10.0   1_556     S
V9     V12    10.0   .     S
V9     V45    10.001   .     S
V10     V12    10.0   1_554     S
V10     V11    10.0   .     S
V10     V20    10.0   .     S
V10     V19    10.0   .     S
V10     V25    10.001   .     S
V11     V12    10.0   .     S
V11     V21    10.0   .     S
V11     V20    10.0   .     S
V11     V26    10.001   .     S
V12     V7    10.0   1_556     S
V12     V10    10.0   1_556     S
V12     V19    10.0   1_556     S
V12     V21    10.0   .     S
V12     V27    10.001   .     S
V13     V17    10.0   .     S
V13     V15    10.0   1_554     S
V13     V14    10.0   .     S
V13     V16    10.0   .     S
V13     V46    10.001   .     S
V14     V18    10.0   .     S
V14     V15    10.0   .     S
V14     V17    10.0   .     S
V14     V47    10.001   .     S
V15     V4    10.0   1_556     S
V15     V16    10.0   1_556     S
V15     V13    10.0   1_556     S
V15     V18    10.0   .     S
V15     V48    10.001   .     S
V16     V15    10.0   1_554     S
V16     V17    10.0   .     S
V16     V18    10.0   1_554     S
V16     V24    10.0   1_554     S
V16     V22    10.0   .     S
V16     V28    10.001   .     S
V17     V18    10.0   .     S
V17     V22    10.0   .     S
V17     V23    10.0   .     S
V17     V29    10.001   .     S
V18     V16    10.0   1_556     S
V18     V23    10.0   .     S
V18     V24    10.0   .     S
V18     V30    10.001   .     S
V19     V12    10.0   1_554     S
V19     V24    10.0   1_554     S
V19     V20    10.0   .     S
V19     V21    10.0   1_554     S
V19     V22    10.0   .     S
V19     V40    10.001   .     S
V20     V22    10.0   .     S
V20     V21    10.0   .     S
V20     V23    10.0   .     S
V20     V41    10.001   .     S
V21     V23    10.0   .     S
V21     V19    10.0   1_556     S
V21     V24    10.0   .     S
V21     V42    10.001   .     S
V22     V24    10.0   1_554     S
V22     V23    10.0   .     S
V22     V34    10.001   .     S
V23     V24    10.0   .     S
V23     V35    10.001   .     S
V24     V19    10.0   1_556     S
V24     V22    10.0   1_556     S
V24     V16    10.0   1_556     S
V24     V36    10.001   .     S
V25     V28    10.0   1_455     S
V25     V27    10.0   1_554     S
V25     V26    10.0   .     S
V25     V29    10.0   1_455     S
V25     V40    10.0   .     S
V25     V41    10.0   .     S
V26     V29    10.0   1_455     S
V26     V27    10.0   .     S
V26     V30    10.0   1_455     S
V26     V41    10.0   .     S
V26     V42    10.0   .     S
V27     V30    10.0   1_455     S
V27     V25    10.0   1_556     S
V27     V28    10.0   1_456     S
V27     V42    10.0   .     S
V27     V40    10.0   1_556     S
V28     V25    10.0   1_655     S
V28     V27    10.0   1_654     S
V28     V29    10.0   .     S
V28     V30    10.0   1_554     S
V28     V34    10.0   .     S
V28     V36    10.0   1_554     S
V29     V26    10.0   1_655     S
V29     V25    10.0   1_655     S
V29     V30    10.0   .     S
V29     V35    10.0   .     S
V29     V34    10.0   .     S
V30     V27    10.0   1_655     S
V30     V26    10.0   1_655     S
V30     V28    10.0   1_556     S
V30     V36    10.0   .     S
V30     V35    10.0   .     S
V31     V34    10.0   1_545     S
V31     V32    10.0   .     S
V31     V33    10.0   1_554     S
V31     V36    10.0   1_544     S
V31     V46    10.0   .     S
V31     V48    10.0   1_554     S
V32     V35    10.0   1_545     S
V32     V33    10.0   .     S
V32     V34    10.0   1_545     S
V32     V47    10.0   .     S
V32     V46    10.0   .     S
V33     V36    10.0   1_545     S
V33     V31    10.0   1_556     S
V33     V35    10.0   1_545     S
V33     V48    10.0   .     S
V33     V47    10.0   .     S
V34     V31    10.0   1_565     S
V34     V32    10.0   1_565     S
V34     V36    10.0   1_554     S
V34     V35    10.0   .     S
V35     V32    10.0   1_565     S
V35     V33    10.0   1_565     S
V35     V36    10.0   .     S
V36     V33    10.0   1_565     S
V36     V31    10.0   1_566     S
V36     V34    10.0   1_556     S
V36     V28    10.0   1_556     S
V37     V40    10.0   1_545     S
V37     V39    10.0   1_554     S
V37     V38    10.0   .     S
V37     V41    10.0   1_545     S
V37     V43    10.0   .     S
V37     V44    10.0   .     S
V38     V41    10.0   1_545     S
V38     V39    10.0   .     S
V38     V42    10.0   1_545     S
V38     V44    10.0   .     S
V38     V45    10.0   .     S
V39     V42    10.0   1_545     S
V39     V37    10.0   1_556     S
V39     V40    10.0   1_546     S
V39     V45    10.0   .     S
V39     V43    10.0   1_556     S
V40     V37    10.0   1_565     S
V40     V39    10.0   1_564     S
V40     V41    10.0   .     S
V40     V42    10.0   1_554     S
V40     V27    10.0   1_554     S
V41     V38    10.0   1_565     S
V41     V37    10.0   1_565     S
V41     V42    10.0   .     S
V42     V39    10.0   1_565     S
V42     V38    10.0   1_565     S
V42     V40    10.0   1_556     S
V43     V39    10.0   1_554     S
V43     V46    10.0   1_455     S
V43     V44    10.0   .     S
V43     V45    10.0   1_554     S
V43     V48    10.0   1_454     S
V44     V47    10.0   1_455     S
V44     V45    10.0   .     S
V44     V46    10.0   1_455     S
V45     V48    10.0   1_455     S
V45     V43    10.0   1_556     S
V45     V47    10.0   1_455     S
V46     V43    10.0   1_655     S
V46     V44    10.0   1_655     S
V46     V48    10.0   1_554     S
V46     V47    10.0   .     S
V47     V44    10.0   1_655     S
V47     V45    10.0   1_655     S
V47     V48    10.0   .     S
V48     V45    10.0   1_655     S
V48     V43    10.0   1_656     S
V48     V46    10.0   1_556     S
V48     V31    10.0   1_556     S
