data_svq
_audit_creation_date              2019-12-31
_audit_creation_method            'Pymatgen'
_symmetry_space_group_name_H-M    'P1'
_symmetry_Int_Tables_number       1
loop_
_symmetry_equiv_pos_as_xyz
  x,y,z
_cell_length_a                    32.6196
_cell_length_b                    32.6196
_cell_length_c                    33.636
_cell_angle_alpha                 90.0
_cell_angle_beta                 90.0
_cell_angle_gamma                 90.0
loop_
_atom_site_label
_atom_site_type_symbol
_atom_site_fract_x
_atom_site_fract_y
_atom_site_fract_z
V1     V     0.083   0.7997   0.25
V2     V     0.083   0.7997   0.75
V3     V     0.7997   0.917   0.25
V4     V     0.7997   0.917   0.75
V5     V     0.917   0.2003   0.25
V6     V     0.917   0.2003   0.75
V7     V     0.2003   0.083   0.25
V8     V     0.2003   0.083   0.75
V9     V     0.7997   0.083   0.0
V10     V     0.7997   0.083   0.5
V11     V     0.917   0.7997   0.0
V12     V     0.917   0.7997   0.5
V13     V     0.2003   0.917   0.0
V14     V     0.2003   0.917   0.5
V15     V     0.083   0.2003   0.0
V16     V     0.083   0.2003   0.5
V17     V     0.417   0.7003   0.0
V18     V     0.417   0.7003   0.5
V19     V     0.7003   0.583   0.0
V20     V     0.7003   0.583   0.5
V21     V     0.583   0.2997   0.0
V22     V     0.583   0.2997   0.5
V23     V     0.2997   0.417   0.0
V24     V     0.2997   0.417   0.5
V25     V     0.7003   0.417   0.25
V26     V     0.7003   0.417   0.75
V27     V     0.583   0.7003   0.25
V28     V     0.583   0.7003   0.75
V29     V     0.2997   0.583   0.25
V30     V     0.2997   0.583   0.75
V31     V     0.417   0.2997   0.25
V32     V     0.417   0.2997   0.75
loop_
_geom_bond_atom_site_label_1
_geom_bond_atom_site_label_2
_geom_bond_distance
_geom_bond_site_symmetry_2
_ccdc_geom_bond_type
V1     V12    10.0   1_455     S
V1     V14    10.0   .     S
V1     V7    10.0   1_565     S
V1     V3    10.0   1_455     S
V1     V11    10.0   1_455     S
V1     V13    10.0   .     S
V1     V29    10.0   .     S
V2     V11    10.0   1_456     S
V2     V13    10.0   1_556     S
V2     V8    10.0   1_565     S
V2     V4    10.0   1_455     S
V2     V12    10.0   1_455     S
V2     V14    10.0   .     S
V2     V30    10.0   .     S
V3     V12    10.0   .     S
V3     V10    10.0   1_565     S
V3     V5    10.0   1_565     S
V3     V1    10.0   1_655     S
V3     V9    10.0   1_565     S
V3     V11    10.0   .     S
V3     V27    10.0   .     S
V4     V11    10.0   1_556     S
V4     V9    10.0   1_566     S
V4     V6    10.0   1_565     S
V4     V2    10.0   1_655     S
V4     V10    10.0   1_565     S
V4     V12    10.0   .     S
V4     V28    10.0   .     S
V5     V16    10.0   1_655     S
V5     V10    10.0   .     S
V5     V3    10.0   1_545     S
V5     V7    10.0   1_655     S
V5     V9    10.0   .     S
V5     V15    10.0   1_655     S
V5     V25    10.0   .     S
V6     V15    10.0   1_656     S
V6     V9    10.0   1_556     S
V6     V4    10.0   1_545     S
V6     V8    10.0   1_655     S
V6     V10    10.0   .     S
V6     V16    10.0   1_655     S
V6     V26    10.0   .     S
V7     V14    10.0   1_545     S
V7     V16    10.0   .     S
V7     V1    10.0   1_545     S
V7     V5    10.0   1_455     S
V7     V15    10.0   .     S
V7     V13    10.0   1_545     S
V7     V31    10.0   .     S
V8     V13    10.0   1_546     S
V8     V15    10.0   1_556     S
V8     V2    10.0   1_545     S
V8     V6    10.0   1_455     S
V8     V16    10.0   .     S
V8     V14    10.0   1_545     S
V8     V32    10.0   .     S
V9     V6    10.0   1_554     S
V9     V4    10.0   1_544     S
V9     V3    10.0   1_545     S
V9     V15    10.0   1_655     S
V9     V11    10.0   1_545     S
V9     V21    10.0   .     S
V10     V3    10.0   1_545     S
V10     V4    10.0   1_545     S
V10     V16    10.0   1_655     S
V10     V12    10.0   1_545     S
V10     V22    10.0   .     S
V11     V4    10.0   1_554     S
V11     V2    10.0   1_654     S
V11     V1    10.0   1_655     S
V11     V13    10.0   1_655     S
V11     V9    10.0   1_565     S
V11     V19    10.0   .     S
V12     V1    10.0   1_655     S
V12     V2    10.0   1_655     S
V12     V14    10.0   1_655     S
V12     V10    10.0   1_565     S
V12     V20    10.0   .     S
V13     V2    10.0   1_554     S
V13     V8    10.0   1_564     S
V13     V7    10.0   1_565     S
V13     V11    10.0   1_455     S
V13     V15    10.0   1_565     S
V13     V17    10.0   .     S
V14     V7    10.0   1_565     S
V14     V8    10.0   1_565     S
V14     V12    10.0   1_455     S
V14     V16    10.0   1_565     S
V14     V18    10.0   .     S
V15     V8    10.0   1_554     S
V15     V6    10.0   1_454     S
V15     V5    10.0   1_455     S
V15     V9    10.0   1_455     S
V15     V13    10.0   1_545     S
V15     V23    10.0   .     S
V16     V5    10.0   1_455     S
V16     V6    10.0   1_455     S
V16     V10    10.0   1_455     S
V16     V14    10.0   1_545     S
V16     V24    10.0   .     S
V17     V27    10.0   .     S
V17     V29    10.0   .     S
V17     V23    10.0   .     S
V17     V19    10.0   .     S
V17     V28    10.0   1_554     S
V17     V30    10.0   1_554     S
V18     V28    10.0   .     S
V18     V30    10.0   .     S
V18     V24    10.0   .     S
V18     V20    10.0   .     S
V18     V27    10.0   .     S
V18     V29    10.0   .     S
V19     V25    10.0   .     S
V19     V27    10.0   .     S
V19     V21    10.0   .     S
V19     V28    10.0   1_554     S
V19     V26    10.0   1_554     S
V20     V26    10.0   .     S
V20     V28    10.0   .     S
V20     V22    10.0   .     S
V20     V27    10.0   .     S
V20     V25    10.0   .     S
V21     V25    10.0   .     S
V21     V31    10.0   .     S
V21     V23    10.0   .     S
V21     V32    10.0   1_554     S
V21     V26    10.0   1_554     S
V22     V26    10.0   .     S
V22     V32    10.0   .     S
V22     V24    10.0   .     S
V22     V31    10.0   .     S
V22     V25    10.0   .     S
V23     V31    10.0   .     S
V23     V29    10.0   .     S
V23     V30    10.0   1_554     S
V23     V32    10.0   1_554     S
V24     V32    10.0   .     S
V24     V30    10.0   .     S
V24     V29    10.0   .     S
V24     V31    10.0   .     S
V25     V31    10.0   .     S
V25     V27    10.0   .     S
V26     V21    10.0   1_556     S
V26     V19    10.0   1_556     S
V26     V32    10.0   .     S
V26     V28    10.0   .     S
V27     V29    10.0   .     S
V28     V19    10.0   1_556     S
V28     V17    10.0   1_556     S
V28     V30    10.0   .     S
V29     V31    10.0   .     S
V30     V17    10.0   1_556     S
V30     V23    10.0   1_556     S
V30     V32    10.0   .     S
V32     V23    10.0   1_556     S
V32     V21    10.0   1_556     S
