data_svs
_audit_creation_date              2019-12-31
_audit_creation_method            'Pymatgen'
_symmetry_space_group_name_H-M    'P1'
_symmetry_Int_Tables_number       1
loop_
_symmetry_equiv_pos_as_xyz
  x,y,z
_cell_length_a                    21.4747
_cell_length_b                    21.4747
_cell_length_c                    33.6354
_cell_angle_alpha                 90.0
_cell_angle_beta                 90.0
_cell_angle_gamma                 90.0
loop_
_atom_site_label
_atom_site_type_symbol
_atom_site_fract_x
_atom_site_fract_y
_atom_site_fract_z
V1     V     0.6958   0.126   0.0
V2     V     0.6958   0.126   0.5
V3     V     0.874   0.3042   0.25
V4     V     0.874   0.3042   0.75
V5     V     0.6958   0.874   0.25
V6     V     0.6958   0.874   0.75
V7     V     0.874   0.6958   0.0
V8     V     0.874   0.6958   0.5
V9     V     0.126   0.6958   0.25
V10     V     0.126   0.6958   0.75
V11     V     0.3042   0.874   0.0
V12     V     0.3042   0.874   0.5
V13     V     0.126   0.3042   0.0
V14     V     0.126   0.3042   0.5
V15     V     0.3042   0.126   0.25
V16     V     0.3042   0.126   0.75
loop_
_geom_bond_atom_site_label_1
_geom_bond_atom_site_label_2
_geom_bond_distance
_geom_bond_site_symmetry_2
_ccdc_geom_bond_type
V1     V13    10.0   1_655     S
V1     V4    10.0   1_554     S
V1     V3    10.0   .     S
V1     V6    10.0   1_544     S
V1     V5    10.0   1_545     S
V1     V7    10.0   1_545     S
V1     V11    10.0   1_545     S
V2     V14    10.0   1_655     S
V2     V3    10.0   .     S
V2     V4    10.0   .     S
V2     V5    10.0   1_545     S
V2     V6    10.0   1_545     S
V2     V8    10.0   1_545     S
V2     V12    10.0   1_545     S
V3     V14    10.0   1_655     S
V3     V13    10.0   1_655     S
V3     V15    10.0   1_655     S
V3     V5    10.0   1_545     S
V3     V9    10.0   1_655     S
V4     V13    10.0   1_656     S
V4     V14    10.0   1_655     S
V4     V16    10.0   1_655     S
V4     V1    10.0   1_556     S
V4     V6    10.0   1_545     S
V4     V10    10.0   1_655     S
V5     V2    10.0   1_565     S
V5     V3    10.0   1_565     S
V5     V1    10.0   1_565     S
V5     V8    10.0   .     S
V5     V7    10.0   .     S
V5     V9    10.0   1_655     S
V5     V15    10.0   1_565     S
V6     V1    10.0   1_566     S
V6     V4    10.0   1_565     S
V6     V2    10.0   1_565     S
V6     V7    10.0   1_556     S
V6     V8    10.0   .     S
V6     V10    10.0   1_655     S
V6     V16    10.0   1_565     S
V7     V1    10.0   1_565     S
V7     V6    10.0   1_554     S
V7     V10    10.0   1_654     S
V7     V9    10.0   1_655     S
V7     V11    10.0   1_655     S
V7     V13    10.0   1_655     S
V8     V2    10.0   1_565     S
V8     V9    10.0   1_655     S
V8     V10    10.0   1_655     S
V8     V12    10.0   1_655     S
V8     V14    10.0   1_655     S
V9     V8    10.0   1_455     S
V9     V5    10.0   1_455     S
V9     V7    10.0   1_455     S
V9     V12    10.0   .     S
V9     V11    10.0   .     S
V9     V15    10.0   1_565     S
V9     V3    10.0   1_455     S
V10     V7    10.0   1_456     S
V10     V6    10.0   1_455     S
V10     V8    10.0   1_455     S
V10     V11    10.0   1_556     S
V10     V12    10.0   .     S
V10     V16    10.0   1_565     S
V10     V4    10.0   1_455     S
V11     V7    10.0   1_455     S
V11     V10    10.0   1_554     S
V11     V16    10.0   1_564     S
V11     V15    10.0   1_565     S
V11     V13    10.0   1_565     S
V11     V1    10.0   1_565     S
V12     V8    10.0   1_455     S
V12     V15    10.0   1_565     S
V12     V16    10.0   1_565     S
V12     V14    10.0   1_565     S
V12     V2    10.0   1_565     S
V13     V4    10.0   1_454     S
V13     V1    10.0   1_455     S
V13     V3    10.0   1_455     S
V13     V15    10.0   .     S
V13     V16    10.0   1_554     S
V13     V11    10.0   1_545     S
V13     V7    10.0   1_455     S
V14     V3    10.0   1_455     S
V14     V2    10.0   1_455     S
V14     V4    10.0   1_455     S
V14     V16    10.0   .     S
V14     V15    10.0   .     S
V14     V12    10.0   1_545     S
V14     V8    10.0   1_455     S
V15     V3    10.0   1_455     S
V15     V12    10.0   1_545     S
V15     V9    10.0   1_545     S
V15     V11    10.0   1_545     S
V15     V5    10.0   1_545     S
V16     V4    10.0   1_455     S
V16     V13    10.0   1_556     S
V16     V11    10.0   1_546     S
V16     V10    10.0   1_545     S
V16     V12    10.0   1_545     S
V16     V6    10.0   1_545     S
