data_swc
_audit_creation_date              2019-12-31
_audit_creation_method            'Pymatgen'
_symmetry_space_group_name_H-M    'P1'
_symmetry_Int_Tables_number       1
loop_
_symmetry_equiv_pos_as_xyz
  x,y,z
_cell_length_a                    47.0782
_cell_length_b                    47.0782
_cell_length_c                    30.0
_cell_angle_alpha                 90.0
_cell_angle_beta                 90.0
_cell_angle_gamma                 120.0
loop_
_atom_site_label
_atom_site_type_symbol
_atom_site_fract_x
_atom_site_fract_y
_atom_site_fract_z
V1     V     0.1209   0.5605   0.3056
V2     V     0.1209   0.5605   0.6389
V3     V     0.1209   0.5605   0.9722
V4     V     0.2271   0.7729   0.1389
V5     V     0.2271   0.7729   0.4722
V6     V     0.2271   0.7729   0.8056
V7     V     0.4395   0.8791   0.3056
V8     V     0.4395   0.8791   0.6389
V9     V     0.4395   0.8791   0.9722
V10     V     0.5457   0.7729   0.1389
V11     V     0.5457   0.7729   0.4722
V12     V     0.5457   0.7729   0.8056
V13     V     0.1062   0.8938   0.0833
V14     V     0.1062   0.8938   0.4167
V15     V     0.1062   0.8938   0.75
V16     V     0.8938   0.7876   0.25
V17     V     0.8938   0.7876   0.5833
V18     V     0.8938   0.7876   0.9167
V19     V     0.8938   0.1062   0.25
V20     V     0.8938   0.1062   0.5833
V21     V     0.8938   0.1062   0.9167
V22     V     0.7876   0.8938   0.0833
V23     V     0.7876   0.8938   0.4167
V24     V     0.7876   0.8938   0.75
V25     V     0.5605   0.1209   0.0278
V26     V     0.5605   0.1209   0.3611
V27     V     0.5605   0.1209   0.6944
V28     V     0.8791   0.4395   0.0278
V29     V     0.8791   0.4395   0.3611
V30     V     0.8791   0.4395   0.6944
V31     V     0.7729   0.2271   0.1944
V32     V     0.7729   0.2271   0.5278
V33     V     0.7729   0.2271   0.8611
V34     V     0.7729   0.5457   0.1944
V35     V     0.7729   0.5457   0.5278
V36     V     0.7729   0.5457   0.8611
V37     V     0.4543   0.2271   0.1944
V38     V     0.4543   0.2271   0.5278
V39     V     0.4543   0.2271   0.8611
V40     V     0.5605   0.4395   0.0278
V41     V     0.5605   0.4395   0.3611
V42     V     0.5605   0.4395   0.6944
V43     V     0.2271   0.4543   0.1389
V44     V     0.2271   0.4543   0.4722
V45     V     0.2271   0.4543   0.8056
V46     V     0.4395   0.5605   0.3056
V47     V     0.4395   0.5605   0.6389
V48     V     0.4395   0.5605   0.9722
V49     V     0.1062   0.2124   0.0833
V50     V     0.1062   0.2124   0.4167
V51     V     0.1062   0.2124   0.75
V52     V     0.2124   0.1062   0.25
V53     V     0.2124   0.1062   0.5833
V54     V     0.2124   0.1062   0.9167
loop_
_geom_bond_atom_site_label_1
_geom_bond_atom_site_label_2
_geom_bond_distance
_geom_bond_site_symmetry_2
_ccdc_geom_bond_type
V1     V44    10.0   .     S
V1     V43    10.0   .     S
V1     V4    10.0   .     S
V1     V3    10.0   1_554     S
V1     V2    10.0   .     S
V1     V5    10.0   .     S
V1     V29    10.0   1_455     S
V2     V45    10.0   .     S
V2     V44    10.0   .     S
V2     V5    10.0   .     S
V2     V3    10.0   .     S
V2     V6    10.0   .     S
V2     V30    10.0   1_455     S
V3     V43    10.0   1_556     S
V3     V45    10.0   .     S
V3     V6    10.0   .     S
V3     V1    10.0   1_556     S
V3     V4    10.0   1_556     S
V3     V28    10.0   1_456     S
V4     V13    10.0   .     S
V4     V3    10.0   1_554     S
V4     V5    10.0   .     S
V4     V6    10.0   1_554     S
V4     V7    10.0   .     S
V4     V9    10.0   1_554     S
V5     V14    10.0   .     S
V5     V6    10.0   .     S
V5     V8    10.0   .     S
V5     V7    10.0   .     S
V6     V15    10.0   .     S
V6     V4    10.0   1_556     S
V6     V9    10.0   .     S
V6     V8    10.0   .     S
V7     V26    10.0   1_565     S
V7     V9    10.0   1_554     S
V7     V8    10.0   .     S
V7     V10    10.0   .     S
V7     V11    10.0   .     S
V8     V27    10.0   1_565     S
V8     V9    10.0   .     S
V8     V11    10.0   .     S
V8     V12    10.0   .     S
V9     V25    10.0   1_566     S
V9     V7    10.0   1_556     S
V9     V12    10.0   .     S
V9     V10    10.0   1_556     S
V9     V4    10.0   1_556     S
V10     V22    10.0   .     S
V10     V9    10.0   1_554     S
V10     V11    10.0   .     S
V10     V12    10.0   1_554     S
V10     V48    10.0   1_554     S
V10     V46    10.0   .     S
V11     V23    10.0   .     S
V11     V12    10.0   .     S
V11     V46    10.0   .     S
V11     V47    10.0   .     S
V12     V24    10.0   .     S
V12     V10    10.0   1_556     S
V12     V47    10.0   .     S
V12     V48    10.0   .     S
V13     V14    10.0   .     S
V13     V15    10.0   1_554     S
V13     V52    10.0   1_565     S
V13     V54    10.0   1_564     S
V13     V16    10.0   1_455     S
V13     V18    10.0   1_454     S
V14     V15    10.0   .     S
V14     V53    10.0   1_565     S
V14     V52    10.0   1_565     S
V14     V17    10.0   1_455     S
V14     V16    10.0   1_455     S
V15     V13    10.0   1_556     S
V15     V54    10.0   1_565     S
V15     V53    10.0   1_565     S
V15     V18    10.0   1_455     S
V15     V17    10.0   1_455     S
V16     V34    10.0   .     S
V16     V18    10.0   1_554     S
V16     V17    10.0   .     S
V16     V22    10.0   .     S
V16     V13    10.0   1_655     S
V16     V14    10.0   1_655     S
V16     V23    10.0   .     S
V17     V35    10.0   .     S
V17     V18    10.0   .     S
V17     V23    10.0   .     S
V17     V14    10.0   1_655     S
V17     V15    10.0   1_655     S
V17     V24    10.0   .     S
V18     V36    10.0   .     S
V18     V16    10.0   1_556     S
V18     V24    10.0   .     S
V18     V15    10.0   1_655     S
V18     V13    10.0   1_656     S
V18     V22    10.0   1_556     S
V19     V21    10.0   1_554     S
V19     V20    10.0   .     S
V19     V22    10.0   1_545     S
V19     V23    10.0   1_545     S
V19     V49    10.0   1_655     S
V19     V50    10.0   1_655     S
V19     V31    10.0   .     S
V20     V21    10.0   .     S
V20     V23    10.0   1_545     S
V20     V24    10.0   1_545     S
V20     V50    10.0   1_655     S
V20     V51    10.0   1_655     S
V20     V32    10.0   .     S
V21     V19    10.0   1_556     S
V21     V24    10.0   1_545     S
V21     V22    10.0   1_546     S
V21     V51    10.0   1_655     S
V21     V49    10.0   1_656     S
V21     V33    10.0   .     S
V22     V18    10.0   1_554     S
V22     V23    10.0   .     S
V22     V24    10.0   1_554     S
V22     V19    10.0   1_565     S
V22     V21    10.0   1_564     S
V23     V24    10.0   .     S
V23     V20    10.0   1_565     S
V23     V19    10.0   1_565     S
V24     V22    10.0   1_556     S
V24     V21    10.0   1_565     S
V24     V20    10.0   1_565     S
V25     V9    10.0   1_544     S
V25     V33    10.0   1_554     S
V25     V31    10.0   .     S
V25     V26    10.0   .     S
V25     V27    10.0   1_554     S
V25     V39    10.0   1_554     S
V25     V37    10.0   .     S
V26     V7    10.0   1_545     S
V26     V31    10.0   .     S
V26     V32    10.0   .     S
V26     V27    10.0   .     S
V26     V37    10.0   .     S
V26     V38    10.0   .     S
V27     V8    10.0   1_545     S
V27     V32    10.0   .     S
V27     V33    10.0   .     S
V27     V25    10.0   1_556     S
V27     V38    10.0   .     S
V27     V39    10.0   .     S
V28     V3    10.0   1_654     S
V28     V29    10.0   .     S
V28     V30    10.0   1_554     S
V28     V36    10.0   1_554     S
V28     V34    10.0   .     S
V28     V33    10.0   1_554     S
V28     V31    10.0   .     S
V29     V1    10.0   1_655     S
V29     V30    10.0   .     S
V29     V34    10.0   .     S
V29     V35    10.0   .     S
V29     V31    10.0   .     S
V29     V32    10.0   .     S
V30     V2    10.0   1_655     S
V30     V28    10.0   1_556     S
V30     V35    10.0   .     S
V30     V36    10.0   .     S
V30     V32    10.0   .     S
V30     V33    10.0   .     S
V31     V33    10.0   1_554     S
V31     V32    10.0   .     S
V32     V33    10.0   .     S
V33     V25    10.0   1_556     S
V33     V31    10.0   1_556     S
V33     V28    10.0   1_556     S
V34     V36    10.0   1_554     S
V34     V35    10.0   .     S
V34     V41    10.0   .     S
V34     V40    10.0   .     S
V35     V36    10.0   .     S
V35     V42    10.0   .     S
V35     V41    10.0   .     S
V36     V28    10.0   1_556     S
V36     V34    10.0   1_556     S
V36     V40    10.0   1_556     S
V36     V42    10.0   .     S
V37     V52    10.0   .     S
V37     V40    10.0   .     S
V37     V39    10.0   1_554     S
V37     V38    10.0   .     S
V37     V41    10.0   .     S
V38     V53    10.0   .     S
V38     V41    10.0   .     S
V38     V39    10.0   .     S
V38     V42    10.0   .     S
V39     V54    10.0   .     S
V39     V42    10.0   .     S
V39     V37    10.0   1_556     S
V39     V40    10.0   1_556     S
V39     V25    10.0   1_556     S
V40     V41    10.0   .     S
V40     V42    10.0   1_554     S
V40     V39    10.0   1_554     S
V40     V36    10.0   1_554     S
V40     V48    10.0   1_554     S
V41     V42    10.0   .     S
V41     V46    10.0   .     S
V42     V40    10.0   1_556     S
V42     V47    10.0   .     S
V43     V3    10.0   1_554     S
V43     V48    10.0   1_554     S
V43     V46    10.0   .     S
V43     V44    10.0   .     S
V43     V45    10.0   1_554     S
V43     V49    10.0   .     S
V44     V46    10.0   .     S
V44     V47    10.0   .     S
V44     V45    10.0   .     S
V44     V50    10.0   .     S
V45     V47    10.0   .     S
V45     V48    10.0   .     S
V45     V43    10.0   1_556     S
V45     V51    10.0   .     S
V46     V48    10.0   1_554     S
V46     V47    10.0   .     S
V47     V48    10.0   .     S
V48     V40    10.0   1_556     S
V48     V43    10.0   1_556     S
V48     V46    10.0   1_556     S
V48     V10    10.0   1_556     S
V49     V19    10.0   1_455     S
V49     V21    10.0   1_454     S
V49     V52    10.0   .     S
V49     V54    10.0   1_554     S
V49     V50    10.0   .     S
V49     V51    10.0   1_554     S
V50     V20    10.0   1_455     S
V50     V19    10.0   1_455     S
V50     V53    10.0   .     S
V50     V52    10.0   .     S
V50     V51    10.0   .     S
V51     V21    10.0   1_455     S
V51     V20    10.0   1_455     S
V51     V54    10.0   .     S
V51     V53    10.0   .     S
V51     V49    10.0   1_556     S
V52     V13    10.0   1_545     S
V52     V14    10.0   1_545     S
V52     V54    10.0   1_554     S
V52     V53    10.0   .     S
V53     V14    10.0   1_545     S
V53     V15    10.0   1_545     S
V53     V54    10.0   .     S
V54     V15    10.0   1_545     S
V54     V13    10.0   1_546     S
V54     V49    10.0   1_556     S
V54     V52    10.0   1_556     S
