data_swe
_audit_creation_date              2019-12-31
_audit_creation_method            'Pymatgen'
_symmetry_space_group_name_H-M    'P1'
_symmetry_Int_Tables_number       1
loop_
_symmetry_equiv_pos_as_xyz
  x,y,z
_cell_length_a                    25.1484
_cell_length_b                    25.1484
_cell_length_c                    30.0
_cell_angle_alpha                 90.0
_cell_angle_beta                 90.0
_cell_angle_gamma                 120.0
loop_
_atom_site_label
_atom_site_type_symbol
_atom_site_fract_x
_atom_site_fract_y
_atom_site_fract_z
V1     V     0.427   0.152   0.1111
V2     V     0.427   0.152   0.4444
V3     V     0.427   0.152   0.7778
V4     V     0.573   0.848   0.1111
V5     V     0.573   0.848   0.4444
V6     V     0.573   0.848   0.7778
V7     V     0.725   0.573   0.2222
V8     V     0.725   0.573   0.5556
V9     V     0.725   0.573   0.8889
V10     V     0.275   0.427   0.2222
V11     V     0.275   0.427   0.5556
V12     V     0.275   0.427   0.8889
V13     V     0.848   0.275   0.0
V14     V     0.848   0.275   0.3333
V15     V     0.848   0.275   0.6667
V16     V     0.152   0.725   0.0
V17     V     0.152   0.725   0.3333
V18     V     0.152   0.725   0.6667
loop_
_geom_bond_atom_site_label_1
_geom_bond_atom_site_label_2
_geom_bond_distance
_geom_bond_site_symmetry_2
_ccdc_geom_bond_type
V1     V7    10.0   .     S
V1     V10    10.0   .     S
V1     V2    10.0   .     S
V1     V3    10.0   1_554     S
V1     V13    10.0   .     S
V1     V16    10.0   1_545     S
V1     V4    10.0   1_545     S
V2     V8    10.0   .     S
V2     V11    10.0   .     S
V2     V3    10.0   .     S
V2     V14    10.0   .     S
V2     V17    10.0   1_545     S
V2     V5    10.0   1_545     S
V3     V9    10.0   .     S
V3     V12    10.0   .     S
V3     V1    10.0   1_556     S
V3     V15    10.0   .     S
V3     V18    10.0   1_545     S
V3     V6    10.0   1_545     S
V4     V10    10.0   .     S
V4     V7    10.0   .     S
V4     V5    10.0   .     S
V4     V6    10.0   1_554     S
V4     V13    10.0   1_565     S
V4     V16    10.0   .     S
V4     V1    10.0   1_565     S
V5     V11    10.0   .     S
V5     V8    10.0   .     S
V5     V6    10.0   .     S
V5     V14    10.0   1_565     S
V5     V17    10.0   .     S
V5     V2    10.0   1_565     S
V6     V12    10.0   .     S
V6     V9    10.0   .     S
V6     V4    10.0   1_556     S
V6     V15    10.0   1_565     S
V6     V18    10.0   .     S
V6     V3    10.0   1_565     S
V7     V10    10.0   .     S
V7     V14    10.0   .     S
V7     V17    10.0   1_655     S
V7     V9    10.0   1_554     S
V7     V8    10.0   .     S
V8     V11    10.0   .     S
V8     V15    10.0   .     S
V8     V18    10.0   1_655     S
V8     V9    10.0   .     S
V9     V12    10.0   .     S
V9     V13    10.0   1_556     S
V9     V16    10.0   1_656     S
V9     V7    10.0   1_556     S
V10     V17    10.0   .     S
V10     V14    10.0   1_455     S
V10     V12    10.0   1_554     S
V10     V11    10.0   .     S
V11     V18    10.0   .     S
V11     V15    10.0   1_455     S
V11     V12    10.0   .     S
V12     V16    10.0   1_556     S
V12     V13    10.0   1_456     S
V12     V10    10.0   1_556     S
V13     V9    10.0   1_554     S
V13     V12    10.0   1_654     S
V13     V16    10.0   1_655     S
V13     V4    10.0   1_545     S
V13     V14    10.0   .     S
V13     V15    10.0   1_554     S
V14     V10    10.0   1_655     S
V14     V17    10.0   1_655     S
V14     V5    10.0   1_545     S
V14     V15    10.0   .     S
V15     V11    10.0   1_655     S
V15     V18    10.0   1_655     S
V15     V6    10.0   1_545     S
V15     V13    10.0   1_556     S
V16     V9    10.0   1_454     S
V16     V12    10.0   1_554     S
V16     V13    10.0   1_455     S
V16     V1    10.0   1_565     S
V16     V17    10.0   .     S
V16     V18    10.0   1_554     S
V17     V7    10.0   1_455     S
V17     V14    10.0   1_455     S
V17     V2    10.0   1_565     S
V17     V18    10.0   .     S
V18     V8    10.0   1_455     S
V18     V15    10.0   1_455     S
V18     V3    10.0   1_565     S
V18     V16    10.0   1_556     S
