data_swf
_audit_creation_date              2019-12-31
_audit_creation_method            'Pymatgen'
_symmetry_space_group_name_H-M    'P1'
_symmetry_Int_Tables_number       1
loop_
_symmetry_equiv_pos_as_xyz
  x,y,z
_cell_length_a                    33.4603
_cell_length_b                    33.4603
_cell_length_c                    28.2848
_cell_angle_alpha                 90.0
_cell_angle_beta                 90.0
_cell_angle_gamma                 120.0
loop_
_atom_site_label
_atom_site_type_symbol
_atom_site_fract_x
_atom_site_fract_y
_atom_site_fract_z
V1     V     0.3333   0.878   0.25
V2     V     0.3333   0.878   0.75
V3     V     0.122   0.6667   0.0
V4     V     0.122   0.6667   0.5
V5     V     0.878   0.3333   0.0
V6     V     0.878   0.3333   0.5
V7     V     0.6667   0.122   0.25
V8     V     0.6667   0.122   0.75
V9     V     0.5447   0.6667   0.25
V10     V     0.5447   0.6667   0.75
V11     V     0.6667   0.5447   0.0
V12     V     0.6667   0.5447   0.5
V13     V     0.3333   0.4553   0.0
V14     V     0.3333   0.4553   0.5
V15     V     0.122   0.4553   0.25
V16     V     0.122   0.4553   0.75
V17     V     0.4553   0.3333   0.25
V18     V     0.4553   0.3333   0.75
V19     V     0.4553   0.122   0.0
V20     V     0.4553   0.122   0.5
V21     V     0.5447   0.878   0.0
V22     V     0.5447   0.878   0.5
V23     V     0.878   0.5447   0.25
V24     V     0.878   0.5447   0.75
loop_
_geom_bond_atom_site_label_1
_geom_bond_atom_site_label_2
_geom_bond_distance
_geom_bond_site_symmetry_2
_ccdc_geom_bond_type
V1     V3    10.0   .     S
V1     V4    10.0   .     S
V1     V22    10.0   .     S
V1     V21    10.0   .     S
V1     V19    10.0   1_565     S
V1     V20    10.0   1_565     S
V1     V7    10.0   1_565     S
V2     V4    10.0   .     S
V2     V3    10.0   1_556     S
V2     V21    10.0   1_556     S
V2     V22    10.0   .     S
V2     V20    10.0   1_565     S
V2     V19    10.0   1_566     S
V2     V8    10.0   1_565     S
V3     V23    10.0   1_455     S
V3     V15    10.0   .     S
V3     V24    10.0   1_454     S
V3     V16    10.0   1_554     S
V3     V5    10.0   1_455     S
V3     V2    10.0   1_554     S
V4     V24    10.0   1_455     S
V4     V16    10.0   .     S
V4     V23    10.0   1_455     S
V4     V15    10.0   .     S
V4     V6    10.0   1_455     S
V5     V16    10.0   1_654     S
V5     V24    10.0   1_554     S
V5     V3    10.0   1_655     S
V5     V15    10.0   1_655     S
V5     V23    10.0   .     S
V5     V7    10.0   .     S
V5     V8    10.0   1_554     S
V6     V15    10.0   1_655     S
V6     V23    10.0   .     S
V6     V4    10.0   1_655     S
V6     V16    10.0   1_655     S
V6     V24    10.0   .     S
V6     V8    10.0   .     S
V6     V7    10.0   .     S
V7     V22    10.0   1_545     S
V7     V21    10.0   1_545     S
V7     V19    10.0   .     S
V7     V20    10.0   .     S
V7     V1    10.0   1_545     S
V8     V5    10.0   1_556     S
V8     V21    10.0   1_546     S
V8     V22    10.0   1_545     S
V8     V20    10.0   .     S
V8     V19    10.0   1_556     S
V8     V2    10.0   1_545     S
V9     V13    10.0   .     S
V9     V11    10.0   .     S
V9     V14    10.0   .     S
V9     V12    10.0   .     S
V9     V17    10.0   .     S
V9     V21    10.0   .     S
V9     V22    10.0   .     S
V10     V14    10.0   .     S
V10     V12    10.0   .     S
V10     V13    10.0   1_556     S
V10     V11    10.0   1_556     S
V10     V18    10.0   .     S
V10     V22    10.0   .     S
V10     V21    10.0   1_556     S
V11     V17    10.0   .     S
V11     V18    10.0   1_554     S
V11     V10    10.0   1_554     S
V11     V13    10.0   .     S
V11     V23    10.0   .     S
V11     V24    10.0   1_554     S
V12     V18    10.0   .     S
V12     V17    10.0   .     S
V12     V14    10.0   .     S
V12     V24    10.0   .     S
V12     V23    10.0   .     S
V13     V17    10.0   .     S
V13     V10    10.0   1_554     S
V13     V18    10.0   1_554     S
V13     V16    10.0   1_554     S
V13     V15    10.0   .     S
V14     V18    10.0   .     S
V14     V17    10.0   .     S
V14     V15    10.0   .     S
V14     V16    10.0   .     S
V15     V6    10.0   1_455     S
V15     V5    10.0   1_455     S
V15     V23    10.0   1_455     S
V16     V3    10.0   1_556     S
V16     V5    10.0   1_456     S
V16     V6    10.0   1_455     S
V16     V24    10.0   1_455     S
V16     V13    10.0   1_556     S
V17     V20    10.0   .     S
V17     V19    10.0   .     S
V18     V11    10.0   1_556     S
V18     V13    10.0   1_556     S
V18     V19    10.0   1_556     S
V18     V20    10.0   .     S
V19     V18    10.0   1_554     S
V19     V1    10.0   1_545     S
V19     V2    10.0   1_544     S
V19     V8    10.0   1_554     S
V19     V21    10.0   1_545     S
V20     V2    10.0   1_545     S
V20     V1    10.0   1_545     S
V20     V22    10.0   1_545     S
V21     V8    10.0   1_564     S
V21     V2    10.0   1_554     S
V21     V7    10.0   1_565     S
V21     V19    10.0   1_565     S
V21     V10    10.0   1_554     S
V22     V7    10.0   1_565     S
V22     V8    10.0   1_565     S
V22     V20    10.0   1_565     S
V23     V3    10.0   1_655     S
V23     V4    10.0   1_655     S
V23     V15    10.0   1_655     S
V24     V4    10.0   1_655     S
V24     V3    10.0   1_656     S
V24     V5    10.0   1_556     S
V24     V16    10.0   1_655     S
V24     V11    10.0   1_556     S
