data_swh
_audit_creation_date              2019-12-31
_audit_creation_method            'Pymatgen'
_symmetry_space_group_name_H-M    'P1'
_symmetry_Int_Tables_number       1
loop_
_symmetry_equiv_pos_as_xyz
  x,y,z
_cell_length_a                    27.8745
_cell_length_b                    27.8745
_cell_length_c                    34.224
_cell_angle_alpha                 90.0
_cell_angle_beta                 90.0
_cell_angle_gamma                 120.0
loop_
_atom_site_label
_atom_site_type_symbol
_atom_site_fract_x
_atom_site_fract_y
_atom_site_fract_z
V1     V     0.2929   0.8928   0.25
V2     V     0.2929   0.8928   0.75
V3     V     0.8928   0.5999   0.25
V4     V     0.8928   0.5999   0.75
V5     V     0.5999   0.8928   0.0
V6     V     0.5999   0.8928   0.5
V7     V     0.8928   0.2929   0.0
V8     V     0.8928   0.2929   0.5
V9     V     0.7071   0.1072   0.25
V10     V     0.7071   0.1072   0.75
V11     V     0.1072   0.4001   0.25
V12     V     0.1072   0.4001   0.75
V13     V     0.4001   0.2929   0.25
V14     V     0.4001   0.2929   0.75
V15     V     0.1072   0.7071   0.0
V16     V     0.1072   0.7071   0.5
V17     V     0.2929   0.4001   0.0
V18     V     0.2929   0.4001   0.5
V19     V     0.4001   0.1072   0.0
V20     V     0.4001   0.1072   0.5
V21     V     0.5999   0.7071   0.25
V22     V     0.5999   0.7071   0.75
V23     V     0.7071   0.5999   0.0
V24     V     0.7071   0.5999   0.5
loop_
_geom_bond_atom_site_label_1
_geom_bond_atom_site_label_2
_geom_bond_distance
_geom_bond_site_symmetry_2
_ccdc_geom_bond_type
V1     V13    10.0   1_565     S
V1     V3    10.0   1_455     S
V1     V16    10.0   .     S
V1     V20    10.0   1_565     S
V1     V15    10.0   .     S
V1     V19    10.0   1_565     S
V1     V9    10.0   1_565     S
V2     V14    10.0   1_565     S
V2     V4    10.0   1_455     S
V2     V15    10.0   1_556     S
V2     V19    10.0   1_566     S
V2     V16    10.0   .     S
V2     V20    10.0   1_565     S
V2     V10    10.0   1_565     S
V3     V1    10.0   1_655     S
V3     V16    10.0   1_655     S
V3     V24    10.0   .     S
V3     V15    10.0   1_655     S
V3     V23    10.0   .     S
V3     V21    10.0   .     S
V3     V11    10.0   1_655     S
V4     V2    10.0   1_655     S
V4     V15    10.0   1_656     S
V4     V23    10.0   1_556     S
V4     V16    10.0   1_655     S
V4     V24    10.0   .     S
V4     V22    10.0   .     S
V4     V12    10.0   1_655     S
V5     V7    10.0   1_565     S
V5     V10    10.0   1_564     S
V5     V9    10.0   1_565     S
V5     V22    10.0   1_554     S
V5     V23    10.0   .     S
V5     V21    10.0   .     S
V5     V19    10.0   1_565     S
V6     V8    10.0   1_565     S
V6     V9    10.0   1_565     S
V6     V10    10.0   1_565     S
V6     V21    10.0   .     S
V6     V24    10.0   .     S
V6     V22    10.0   .     S
V6     V20    10.0   1_565     S
V7     V5    10.0   1_545     S
V7     V17    10.0   1_655     S
V7     V12    10.0   1_654     S
V7     V10    10.0   1_554     S
V7     V9    10.0   .     S
V7     V11    10.0   1_655     S
V7     V15    10.0   1_655     S
V8     V6    10.0   1_545     S
V8     V18    10.0   1_655     S
V8     V11    10.0   1_655     S
V8     V9    10.0   .     S
V8     V10    10.0   .     S
V8     V12    10.0   1_655     S
V8     V16    10.0   1_655     S
V9     V6    10.0   1_545     S
V9     V21    10.0   1_545     S
V9     V11    10.0   1_655     S
V9     V5    10.0   1_545     S
V9     V1    10.0   1_545     S
V10     V7    10.0   1_556     S
V10     V5    10.0   1_546     S
V10     V22    10.0   1_545     S
V10     V12    10.0   1_655     S
V10     V6    10.0   1_545     S
V10     V2    10.0   1_545     S
V11     V18    10.0   .     S
V11     V8    10.0   1_455     S
V11     V9    10.0   1_455     S
V11     V13    10.0   .     S
V11     V17    10.0   .     S
V11     V7    10.0   1_455     S
V11     V3    10.0   1_455     S
V12     V17    10.0   1_556     S
V12     V7    10.0   1_456     S
V12     V10    10.0   1_455     S
V12     V14    10.0   .     S
V12     V18    10.0   .     S
V12     V8    10.0   1_455     S
V12     V4    10.0   1_455     S
V13     V1    10.0   1_545     S
V13     V20    10.0   .     S
V13     V18    10.0   .     S
V13     V19    10.0   .     S
V13     V17    10.0   .     S
V13     V21    10.0   .     S
V14     V2    10.0   1_545     S
V14     V19    10.0   1_556     S
V14     V17    10.0   1_556     S
V14     V20    10.0   .     S
V14     V18    10.0   .     S
V14     V22    10.0   .     S
V15     V2    10.0   1_554     S
V15     V4    10.0   1_454     S
V15     V23    10.0   1_455     S
V15     V19    10.0   1_565     S
V15     V3    10.0   1_455     S
V15     V7    10.0   1_455     S
V16     V3    10.0   1_455     S
V16     V24    10.0   1_455     S
V16     V20    10.0   1_565     S
V16     V4    10.0   1_455     S
V16     V8    10.0   1_455     S
V17     V7    10.0   1_455     S
V17     V12    10.0   1_554     S
V17     V14    10.0   1_554     S
V17     V19    10.0   .     S
V17     V23    10.0   .     S
V18     V8    10.0   1_455     S
V18     V20    10.0   .     S
V18     V24    10.0   .     S
V19     V14    10.0   1_554     S
V19     V2    10.0   1_544     S
V19     V15    10.0   1_545     S
V19     V1    10.0   1_545     S
V19     V5    10.0   1_545     S
V20     V1    10.0   1_545     S
V20     V16    10.0   1_545     S
V20     V2    10.0   1_545     S
V20     V6    10.0   1_545     S
V21     V9    10.0   1_565     S
V21     V24    10.0   .     S
V21     V23    10.0   .     S
V22     V10    10.0   1_565     S
V22     V23    10.0   1_556     S
V22     V5    10.0   1_556     S
V22     V24    10.0   .     S
V23     V4    10.0   1_554     S
V23     V15    10.0   1_655     S
V23     V22    10.0   1_554     S
V24     V16    10.0   1_655     S
