data_swk
_audit_creation_date              2019-12-31
_audit_creation_method            'Pymatgen'
_symmetry_space_group_name_H-M    'P1'
_symmetry_Int_Tables_number       1
loop_
_symmetry_equiv_pos_as_xyz
  x,y,z
_cell_length_a                    34.6411
_cell_length_b                    34.6411
_cell_length_c                    32.6598
_cell_angle_alpha                 90.0
_cell_angle_beta                 90.0
_cell_angle_gamma                 120.0
loop_
_atom_site_label
_atom_site_type_symbol
_atom_site_fract_x
_atom_site_fract_y
_atom_site_fract_z
V1     V     0.5   0.1667   0.125
V2     V     0.5   0.1667   0.625
V3     V     0.8333   0.3333   0.125
V4     V     0.8333   0.3333   0.625
V5     V     0.6667   0.5   0.125
V6     V     0.6667   0.5   0.625
V7     V     0.6667   0.1667   0.375
V8     V     0.6667   0.1667   0.875
V9     V     0.8333   0.5   0.375
V10     V     0.8333   0.5   0.875
V11     V     0.5   0.3333   0.375
V12     V     0.5   0.3333   0.875
V13     V     0.5   0.6667   0.125
V14     V     0.5   0.6667   0.625
V15     V     0.3333   0.5   0.375
V16     V     0.3333   0.5   0.875
V17     V     0.1667   0.6667   0.375
V18     V     0.1667   0.6667   0.875
V19     V     0.5   0.8333   0.375
V20     V     0.5   0.8333   0.875
V21     V     0.3333   0.8333   0.125
V22     V     0.3333   0.8333   0.625
V23     V     0.1667   0.5   0.125
V24     V     0.1667   0.5   0.625
loop_
_geom_bond_atom_site_label_1
_geom_bond_atom_site_label_2
_geom_bond_distance
_geom_bond_site_symmetry_2
_ccdc_geom_bond_type
V1     V11    10.0   .     S
V1     V7    10.0   .     S
V1     V5    10.0   .     S
V1     V3    10.0   .     S
V1     V12    10.0   1_554     S
V1     V8    10.0   1_554     S
V1     V21    10.0   1_545     S
V2     V12    10.0   .     S
V2     V8    10.0   .     S
V2     V6    10.0   .     S
V2     V4    10.0   .     S
V2     V11    10.0   .     S
V2     V7    10.0   .     S
V2     V22    10.0   1_545     S
V3     V9    10.0   .     S
V3     V7    10.0   .     S
V3     V5    10.0   .     S
V3     V10    10.0   1_554     S
V3     V8    10.0   1_554     S
V3     V23    10.0   1_655     S
V4     V10    10.0   .     S
V4     V8    10.0   .     S
V4     V6    10.0   .     S
V4     V9    10.0   .     S
V4     V7    10.0   .     S
V4     V24    10.0   1_655     S
V5     V11    10.0   .     S
V5     V9    10.0   .     S
V5     V12    10.0   1_554     S
V5     V10    10.0   1_554     S
V5     V13    10.0   .     S
V6     V12    10.0   .     S
V6     V10    10.0   .     S
V6     V11    10.0   .     S
V6     V9    10.0   .     S
V6     V14    10.0   .     S
V7     V9    10.0   .     S
V7     V11    10.0   .     S
V7     V19    10.0   1_545     S
V8     V10    10.0   .     S
V8     V12    10.0   .     S
V8     V3    10.0   1_556     S
V8     V1    10.0   1_556     S
V8     V20    10.0   1_545     S
V9     V11    10.0   .     S
V9     V17    10.0   1_655     S
V10     V12    10.0   .     S
V10     V3    10.0   1_556     S
V10     V5    10.0   1_556     S
V10     V18    10.0   1_655     S
V11     V15    10.0   .     S
V12     V5    10.0   1_556     S
V12     V1    10.0   1_556     S
V12     V16    10.0   .     S
V13     V21    10.0   .     S
V13     V15    10.0   .     S
V13     V19    10.0   .     S
V13     V23    10.0   .     S
V13     V16    10.0   1_554     S
V13     V20    10.0   1_554     S
V14     V22    10.0   .     S
V14     V16    10.0   .     S
V14     V20    10.0   .     S
V14     V24    10.0   .     S
V14     V15    10.0   .     S
V14     V19    10.0   .     S
V15     V23    10.0   .     S
V15     V17    10.0   .     S
V15     V19    10.0   .     S
V15     V24    10.0   .     S
V16     V24    10.0   .     S
V16     V18    10.0   .     S
V16     V20    10.0   .     S
V16     V13    10.0   1_556     S
V16     V23    10.0   1_556     S
V17     V23    10.0   .     S
V17     V21    10.0   .     S
V17     V19    10.0   .     S
V17     V24    10.0   .     S
V17     V22    10.0   .     S
V17     V9    10.0   1_455     S
V18     V24    10.0   .     S
V18     V22    10.0   .     S
V18     V20    10.0   .     S
V18     V23    10.0   1_556     S
V18     V21    10.0   1_556     S
V18     V10    10.0   1_455     S
V19     V21    10.0   .     S
V19     V22    10.0   .     S
V19     V7    10.0   1_565     S
V20     V22    10.0   .     S
V20     V21    10.0   1_556     S
V20     V13    10.0   1_556     S
V20     V8    10.0   1_565     S
V21     V23    10.0   .     S
V21     V20    10.0   1_554     S
V21     V18    10.0   1_554     S
V21     V1    10.0   1_565     S
V22     V24    10.0   .     S
V22     V2    10.0   1_565     S
V23     V16    10.0   1_554     S
V23     V18    10.0   1_554     S
V23     V3    10.0   1_455     S
V24     V4    10.0   1_455     S
