data_swl
_audit_creation_date              2019-12-31
_audit_creation_method            'Pymatgen'
_symmetry_space_group_name_H-M    'P1'
_symmetry_Int_Tables_number       1
loop_
_symmetry_equiv_pos_as_xyz
  x,y,z
_cell_length_a                    30.0
_cell_length_b                    38.637
_cell_length_c                    37.3205
_cell_angle_alpha                 90.0
_cell_angle_beta                 90.0
_cell_angle_gamma                 90.0
loop_
_atom_site_label
_atom_site_type_symbol
_atom_site_fract_x
_atom_site_fract_y
_atom_site_fract_z
V1     V     0.2917   0.375   0.009
V2     V     0.625   0.375   0.009
V3     V     0.9583   0.375   0.009
V4     V     0.2917   0.375   0.741
V5     V     0.625   0.375   0.741
V6     V     0.9583   0.375   0.741
V7     V     0.125   0.875   0.009
V8     V     0.4583   0.875   0.009
V9     V     0.7917   0.875   0.009
V10     V     0.125   0.875   0.741
V11     V     0.4583   0.875   0.741
V12     V     0.7917   0.875   0.741
V13     V     0.0417   0.625   0.991
V14     V     0.375   0.625   0.991
V15     V     0.7083   0.625   0.991
V16     V     0.0417   0.625   0.259
V17     V     0.375   0.625   0.259
V18     V     0.7083   0.625   0.259
V19     V     0.2083   0.125   0.991
V20     V     0.5417   0.125   0.991
V21     V     0.875   0.125   0.991
V22     V     0.2083   0.125   0.259
V23     V     0.5417   0.125   0.259
V24     V     0.875   0.125   0.259
V25     V     0.2083   0.625   0.491
V26     V     0.5417   0.625   0.491
V27     V     0.875   0.625   0.491
V28     V     0.2083   0.625   0.759
V29     V     0.5417   0.625   0.759
V30     V     0.875   0.625   0.759
V31     V     0.2917   0.875   0.509
V32     V     0.625   0.875   0.509
V33     V     0.9583   0.875   0.509
V34     V     0.2917   0.875   0.241
V35     V     0.625   0.875   0.241
V36     V     0.9583   0.875   0.241
V37     V     0.125   0.375   0.509
V38     V     0.4583   0.375   0.509
V39     V     0.7917   0.375   0.509
V40     V     0.125   0.375   0.241
V41     V     0.4583   0.375   0.241
V42     V     0.7917   0.375   0.241
V43     V     0.0417   0.125   0.491
V44     V     0.375   0.125   0.491
V45     V     0.7083   0.125   0.491
V46     V     0.0417   0.125   0.759
V47     V     0.375   0.125   0.759
V48     V     0.7083   0.125   0.759
loop_
_geom_bond_atom_site_label_1
_geom_bond_atom_site_label_2
_geom_bond_distance
_geom_bond_site_symmetry_2
_ccdc_geom_bond_type
V1     V40    10.0   .     S
V1     V41    10.0   .     S
V1     V4    10.0   1_554     S
V1     V14    10.0   1_554     S
V1     V19    10.0   1_554     S
V1     V3    10.0   1_455     S
V1     V2    10.0   .     S
V2     V41    10.0   .     S
V2     V42    10.0   .     S
V2     V5    10.0   1_554     S
V2     V15    10.0   1_554     S
V2     V20    10.0   1_554     S
V2     V3    10.0   .     S
V3     V42    10.0   .     S
V3     V40    10.0   1_655     S
V3     V6    10.0   1_554     S
V3     V13    10.0   1_654     S
V3     V21    10.0   1_554     S
V3     V1    10.0   1_655     S
V4     V37    10.0   .     S
V4     V38    10.0   .     S
V4     V1    10.0   1_556     S
V4     V47    10.0   .     S
V4     V28    10.0   .     S
V4     V6    10.0   1_455     S
V4     V5    10.0   .     S
V5     V38    10.0   .     S
V5     V39    10.0   .     S
V5     V2    10.0   1_556     S
V5     V48    10.0   .     S
V5     V29    10.0   .     S
V5     V6    10.0   .     S
V6     V39    10.0   .     S
V6     V37    10.0   1_655     S
V6     V3    10.0   1_556     S
V6     V46    10.0   1_655     S
V6     V30    10.0   .     S
V6     V4    10.0   1_655     S
V7     V34    10.0   .     S
V7     V36    10.0   1_455     S
V7     V10    10.0   1_554     S
V7     V13    10.0   1_554     S
V7     V19    10.0   1_564     S
V7     V8    10.0   .     S
V7     V9    10.0   1_455     S
V8     V35    10.0   .     S
V8     V34    10.0   .     S
V8     V11    10.0   1_554     S
V8     V14    10.0   1_554     S
V8     V20    10.0   1_564     S
V8     V9    10.0   .     S
V9     V36    10.0   .     S
V9     V35    10.0   .     S
V9     V12    10.0   1_554     S
V9     V15    10.0   1_554     S
V9     V21    10.0   1_564     S
V9     V7    10.0   1_655     S
V10     V31    10.0   .     S
V10     V33    10.0   1_455     S
V10     V7    10.0   1_556     S
V10     V46    10.0   1_565     S
V10     V28    10.0   .     S
V10     V11    10.0   .     S
V10     V12    10.0   1_455     S
V11     V32    10.0   .     S
V11     V31    10.0   .     S
V11     V8    10.0   1_556     S
V11     V47    10.0   1_565     S
V11     V29    10.0   .     S
V11     V12    10.0   .     S
V12     V33    10.0   .     S
V12     V32    10.0   .     S
V12     V9    10.0   1_556     S
V12     V48    10.0   1_565     S
V12     V30    10.0   .     S
V12     V10    10.0   1_655     S
V13     V28    10.0   .     S
V13     V30    10.0   1_455     S
V13     V16    10.0   1_556     S
V13     V7    10.0   1_556     S
V13     V3    10.0   1_456     S
V13     V14    10.0   .     S
V13     V15    10.0   1_455     S
V14     V29    10.0   .     S
V14     V28    10.0   .     S
V14     V17    10.0   1_556     S
V14     V8    10.0   1_556     S
V14     V1    10.0   1_556     S
V14     V15    10.0   .     S
V15     V30    10.0   .     S
V15     V29    10.0   .     S
V15     V18    10.0   1_556     S
V15     V9    10.0   1_556     S
V15     V2    10.0   1_556     S
V15     V13    10.0   1_655     S
V16     V25    10.0   .     S
V16     V27    10.0   1_455     S
V16     V13    10.0   1_554     S
V16     V36    10.0   1_455     S
V16     V40    10.0   .     S
V16     V17    10.0   .     S
V16     V18    10.0   1_455     S
V17     V26    10.0   .     S
V17     V25    10.0   .     S
V17     V14    10.0   1_554     S
V17     V34    10.0   .     S
V17     V41    10.0   .     S
V17     V18    10.0   .     S
V18     V27    10.0   .     S
V18     V26    10.0   .     S
V18     V15    10.0   1_554     S
V18     V35    10.0   .     S
V18     V42    10.0   .     S
V18     V16    10.0   1_655     S
V19     V22    10.0   1_556     S
V19     V1    10.0   1_556     S
V19     V7    10.0   1_546     S
V19     V21    10.0   1_455     S
V19     V20    10.0   .     S
V19     V46    10.0   .     S
V19     V47    10.0   .     S
V20     V23    10.0   1_556     S
V20     V2    10.0   1_556     S
V20     V8    10.0   1_546     S
V20     V21    10.0   .     S
V20     V47    10.0   .     S
V20     V48    10.0   .     S
V21     V24    10.0   1_556     S
V21     V3    10.0   1_556     S
V21     V9    10.0   1_546     S
V21     V19    10.0   1_655     S
V21     V48    10.0   .     S
V21     V46    10.0   1_655     S
V22     V43    10.0   .     S
V22     V44    10.0   .     S
V22     V19    10.0   1_554     S
V22     V34    10.0   1_545     S
V22     V40    10.0   .     S
V22     V24    10.0   1_455     S
V22     V23    10.0   .     S
V23     V44    10.0   .     S
V23     V45    10.0   .     S
V23     V20    10.0   1_554     S
V23     V35    10.0   1_545     S
V23     V41    10.0   .     S
V23     V24    10.0   .     S
V24     V45    10.0   .     S
V24     V43    10.0   1_655     S
V24     V21    10.0   1_554     S
V24     V36    10.0   1_545     S
V24     V42    10.0   .     S
V24     V22    10.0   1_655     S
V25     V28    10.0   .     S
V25     V31    10.0   .     S
V25     V37    10.0   .     S
V25     V27    10.0   1_455     S
V25     V26    10.0   .     S
V26     V29    10.0   .     S
V26     V32    10.0   .     S
V26     V38    10.0   .     S
V26     V27    10.0   .     S
V27     V16    10.0   1_655     S
V27     V30    10.0   .     S
V27     V33    10.0   .     S
V27     V39    10.0   .     S
V27     V25    10.0   1_655     S
V28     V30    10.0   1_455     S
V28     V29    10.0   .     S
V29     V30    10.0   .     S
V30     V13    10.0   1_655     S
V30     V28    10.0   1_655     S
V31     V34    10.0   .     S
V31     V44    10.0   1_565     S
V31     V33    10.0   1_455     S
V31     V32    10.0   .     S
V32     V35    10.0   .     S
V32     V45    10.0   1_565     S
V32     V33    10.0   .     S
V33     V10    10.0   1_655     S
V33     V36    10.0   .     S
V33     V43    10.0   1_665     S
V33     V31    10.0   1_655     S
V34     V22    10.0   1_565     S
V34     V36    10.0   1_455     S
V34     V35    10.0   .     S
V35     V23    10.0   1_565     S
V35     V36    10.0   .     S
V36     V7    10.0   1_655     S
V36     V24    10.0   1_565     S
V36     V16    10.0   1_655     S
V36     V34    10.0   1_655     S
V37     V6    10.0   1_455     S
V37     V40    10.0   .     S
V37     V43    10.0   .     S
V37     V38    10.0   .     S
V37     V39    10.0   1_455     S
V38     V41    10.0   .     S
V38     V44    10.0   .     S
V38     V39    10.0   .     S
V39     V42    10.0   .     S
V39     V45    10.0   .     S
V39     V37    10.0   1_655     S
V40     V3    10.0   1_455     S
V40     V41    10.0   .     S
V40     V42    10.0   1_455     S
V41     V42    10.0   .     S
V42     V40    10.0   1_655     S
V43     V24    10.0   1_455     S
V43     V46    10.0   .     S
V43     V33    10.0   1_445     S
V43     V44    10.0   .     S
V43     V45    10.0   1_455     S
V44     V47    10.0   .     S
V44     V31    10.0   1_545     S
V44     V45    10.0   .     S
V45     V48    10.0   .     S
V45     V32    10.0   1_545     S
V45     V43    10.0   1_655     S
V46     V10    10.0   1_545     S
V46     V6    10.0   1_455     S
V46     V47    10.0   .     S
V46     V48    10.0   1_455     S
V46     V21    10.0   1_455     S
V47     V11    10.0   1_545     S
V47     V48    10.0   .     S
V48     V12    10.0   1_545     S
V48     V46    10.0   1_655     S
