data_sxa
_audit_creation_date              2019-12-31
_audit_creation_method            'Pymatgen'
_symmetry_space_group_name_H-M    'P1'
_symmetry_Int_Tables_number       1
loop_
_symmetry_equiv_pos_as_xyz
  x,y,z
_cell_length_a                    32.6472
_cell_length_b                    32.6472
_cell_length_c                    23.112
_cell_angle_alpha                 90.0
_cell_angle_beta                 90.0
_cell_angle_gamma                 90.0
loop_
_atom_site_label
_atom_site_type_symbol
_atom_site_fract_x
_atom_site_fract_y
_atom_site_fract_z
V1     V     0.25   0.375   0.375
V2     V     0.25   0.375   0.875
V3     V     0.25   0.875   0.375
V4     V     0.25   0.875   0.875
V5     V     0.75   0.375   0.375
V6     V     0.75   0.375   0.875
V7     V     0.75   0.875   0.375
V8     V     0.75   0.875   0.875
V9     V     0.0   0.125   0.375
V10     V     0.0   0.125   0.875
V11     V     0.0   0.625   0.375
V12     V     0.0   0.625   0.875
V13     V     0.5   0.125   0.375
V14     V     0.5   0.125   0.875
V15     V     0.5   0.625   0.375
V16     V     0.5   0.625   0.875
V17     V     0.0   0.375   0.125
V18     V     0.0   0.375   0.625
V19     V     0.0   0.875   0.125
V20     V     0.0   0.875   0.625
V21     V     0.5   0.375   0.125
V22     V     0.5   0.375   0.625
V23     V     0.5   0.875   0.125
V24     V     0.5   0.875   0.625
V25     V     0.25   0.125   0.125
V26     V     0.25   0.125   0.625
V27     V     0.25   0.625   0.125
V28     V     0.25   0.625   0.625
V29     V     0.75   0.125   0.125
V30     V     0.75   0.125   0.625
V31     V     0.75   0.625   0.125
V32     V     0.75   0.625   0.625
loop_
_geom_bond_atom_site_label_1
_geom_bond_atom_site_label_2
_geom_bond_distance
_geom_bond_site_symmetry_2
_ccdc_geom_bond_type
V1     V26    10.0   .     S
V1     V28    10.0   .     S
V1     V18    10.0   .     S
V1     V22    10.0   .     S
V1     V17    10.0   .     S
V1     V21    10.0   .     S
V2     V25    10.0   1_556     S
V2     V27    10.0   1_556     S
V2     V17    10.0   1_556     S
V2     V21    10.0   1_556     S
V2     V18    10.0   .     S
V2     V22    10.0   .     S
V3     V28    10.0   .     S
V3     V26    10.0   1_565     S
V3     V20    10.0   .     S
V3     V24    10.0   .     S
V3     V19    10.0   .     S
V3     V23    10.0   .     S
V4     V27    10.0   1_556     S
V4     V25    10.0   1_566     S
V4     V19    10.0   1_556     S
V4     V23    10.0   1_556     S
V4     V20    10.0   .     S
V4     V24    10.0   .     S
V5     V30    10.0   .     S
V5     V32    10.0   .     S
V5     V22    10.0   .     S
V5     V18    10.0   1_655     S
V5     V21    10.0   .     S
V5     V17    10.0   1_655     S
V6     V29    10.0   1_556     S
V6     V31    10.0   1_556     S
V6     V21    10.0   1_556     S
V6     V17    10.0   1_656     S
V6     V22    10.0   .     S
V6     V18    10.0   1_655     S
V7     V32    10.0   .     S
V7     V30    10.0   1_565     S
V7     V24    10.0   .     S
V7     V20    10.0   1_655     S
V7     V23    10.0   .     S
V7     V19    10.0   1_655     S
V8     V31    10.0   1_556     S
V8     V29    10.0   1_566     S
V8     V23    10.0   1_556     S
V8     V19    10.0   1_656     S
V8     V24    10.0   .     S
V8     V20    10.0   1_655     S
V9     V18    10.0   .     S
V9     V20    10.0   1_545     S
V9     V26    10.0   .     S
V9     V30    10.0   1_455     S
V9     V25    10.0   .     S
V9     V29    10.0   1_455     S
V10     V17    10.0   1_556     S
V10     V19    10.0   1_546     S
V10     V25    10.0   1_556     S
V10     V29    10.0   1_456     S
V10     V26    10.0   .     S
V10     V30    10.0   1_455     S
V11     V20    10.0   .     S
V11     V18    10.0   .     S
V11     V28    10.0   .     S
V11     V32    10.0   1_455     S
V11     V27    10.0   .     S
V11     V31    10.0   1_455     S
V12     V19    10.0   1_556     S
V12     V17    10.0   1_556     S
V12     V27    10.0   1_556     S
V12     V31    10.0   1_456     S
V12     V28    10.0   .     S
V12     V32    10.0   1_455     S
V13     V22    10.0   .     S
V13     V24    10.0   1_545     S
V13     V30    10.0   .     S
V13     V26    10.0   .     S
V13     V29    10.0   .     S
V13     V25    10.0   .     S
V14     V21    10.0   1_556     S
V14     V23    10.0   1_546     S
V14     V29    10.0   1_556     S
V14     V25    10.0   1_556     S
V14     V30    10.0   .     S
V14     V26    10.0   .     S
V15     V24    10.0   .     S
V15     V22    10.0   .     S
V15     V32    10.0   .     S
V15     V28    10.0   .     S
V15     V31    10.0   .     S
V15     V27    10.0   .     S
V16     V23    10.0   1_556     S
V16     V21    10.0   1_556     S
V16     V31    10.0   1_556     S
V16     V27    10.0   1_556     S
V16     V32    10.0   .     S
V16     V28    10.0   .     S
V17     V2    10.0   1_554     S
V17     V6    10.0   1_454     S
V17     V10    10.0   1_554     S
V17     V12    10.0   1_554     S
V17     V5    10.0   1_455     S
V18     V5    10.0   1_455     S
V18     V6    10.0   1_455     S
V19     V4    10.0   1_554     S
V19     V8    10.0   1_454     S
V19     V12    10.0   1_554     S
V19     V10    10.0   1_564     S
V19     V7    10.0   1_455     S
V20     V7    10.0   1_455     S
V20     V9    10.0   1_565     S
V20     V8    10.0   1_455     S
V21     V6    10.0   1_554     S
V21     V2    10.0   1_554     S
V21     V14    10.0   1_554     S
V21     V16    10.0   1_554     S
V23     V8    10.0   1_554     S
V23     V4    10.0   1_554     S
V23     V16    10.0   1_554     S
V23     V14    10.0   1_564     S
V24     V13    10.0   1_565     S
V25     V2    10.0   1_554     S
V25     V4    10.0   1_544     S
V25     V10    10.0   1_554     S
V25     V14    10.0   1_554     S
V26     V3    10.0   1_545     S
V27     V4    10.0   1_554     S
V27     V2    10.0   1_554     S
V27     V12    10.0   1_554     S
V27     V16    10.0   1_554     S
V29     V6    10.0   1_554     S
V29     V8    10.0   1_544     S
V29     V14    10.0   1_554     S
V29     V10    10.0   1_654     S
V29     V9    10.0   1_655     S
V30     V7    10.0   1_545     S
V30     V9    10.0   1_655     S
V30     V10    10.0   1_655     S
V31     V8    10.0   1_554     S
V31     V6    10.0   1_554     S
V31     V16    10.0   1_554     S
V31     V12    10.0   1_654     S
V31     V11    10.0   1_655     S
V32     V11    10.0   1_655     S
V32     V12    10.0   1_655     S
