data_sxt
_audit_creation_date              2019-12-31
_audit_creation_method            'Pymatgen'
_symmetry_space_group_name_H-M    'P1'
_symmetry_Int_Tables_number       1
loop_
_symmetry_equiv_pos_as_xyz
  x,y,z
_cell_length_a                    34.0384
_cell_length_b                    34.0384
_cell_length_c                    34.0384
_cell_angle_alpha                 90.0
_cell_angle_beta                 90.0
_cell_angle_gamma                 90.0
loop_
_atom_site_label
_atom_site_type_symbol
_atom_site_fract_x
_atom_site_fract_y
_atom_site_fract_z
V1     V     0.3961   0.125   0.1461
V2     V     0.3961   0.125   0.6461
V3     V     0.3961   0.625   0.1461
V4     V     0.3961   0.625   0.6461
V5     V     0.8961   0.125   0.1461
V6     V     0.8961   0.125   0.6461
V7     V     0.8961   0.625   0.1461
V8     V     0.8961   0.625   0.6461
V9     V     0.375   0.1461   0.1039
V10     V     0.375   0.1461   0.6039
V11     V     0.375   0.6461   0.1039
V12     V     0.375   0.6461   0.6039
V13     V     0.875   0.1461   0.1039
V14     V     0.875   0.1461   0.6039
V15     V     0.875   0.6461   0.1039
V16     V     0.875   0.6461   0.6039
V17     V     0.3539   0.1039   0.125
V18     V     0.3539   0.1039   0.625
V19     V     0.3539   0.6039   0.125
V20     V     0.3539   0.6039   0.625
V21     V     0.8539   0.1039   0.125
V22     V     0.8539   0.1039   0.625
V23     V     0.8539   0.6039   0.125
V24     V     0.8539   0.6039   0.625
V25     V     0.375   0.3961   0.1461
V26     V     0.375   0.3961   0.6461
V27     V     0.375   0.8961   0.1461
V28     V     0.375   0.8961   0.6461
V29     V     0.875   0.3961   0.1461
V30     V     0.875   0.3961   0.6461
V31     V     0.875   0.8961   0.1461
V32     V     0.875   0.8961   0.6461
V33     V     0.3539   0.375   0.1039
V34     V     0.3539   0.375   0.6039
V35     V     0.3539   0.875   0.1039
V36     V     0.3539   0.875   0.6039
V37     V     0.8539   0.375   0.1039
V38     V     0.8539   0.375   0.6039
V39     V     0.8539   0.875   0.1039
V40     V     0.8539   0.875   0.6039
V41     V     0.3961   0.3539   0.125
V42     V     0.3961   0.3539   0.625
V43     V     0.3961   0.8539   0.125
V44     V     0.3961   0.8539   0.625
V45     V     0.8961   0.3539   0.125
V46     V     0.8961   0.3539   0.625
V47     V     0.8961   0.8539   0.125
V48     V     0.8961   0.8539   0.625
V49     V     0.1461   0.3961   0.125
V50     V     0.1461   0.3961   0.625
V51     V     0.1461   0.8961   0.125
V52     V     0.1461   0.8961   0.625
V53     V     0.6461   0.3961   0.125
V54     V     0.6461   0.3961   0.625
V55     V     0.6461   0.8961   0.125
V56     V     0.6461   0.8961   0.625
V57     V     0.1039   0.375   0.1461
V58     V     0.1039   0.375   0.6461
V59     V     0.1039   0.875   0.1461
V60     V     0.1039   0.875   0.6461
V61     V     0.6039   0.375   0.1461
V62     V     0.6039   0.375   0.6461
V63     V     0.6039   0.875   0.1461
V64     V     0.6039   0.875   0.6461
V65     V     0.125   0.3539   0.1039
V66     V     0.125   0.3539   0.6039
V67     V     0.125   0.8539   0.1039
V68     V     0.125   0.8539   0.6039
V69     V     0.625   0.3539   0.1039
V70     V     0.625   0.3539   0.6039
V71     V     0.625   0.8539   0.1039
V72     V     0.625   0.8539   0.6039
V73     V     0.3961   0.1461   0.375
V74     V     0.3961   0.1461   0.875
V75     V     0.3961   0.6461   0.375
V76     V     0.3961   0.6461   0.875
V77     V     0.8961   0.1461   0.375
V78     V     0.8961   0.1461   0.875
V79     V     0.8961   0.6461   0.375
V80     V     0.8961   0.6461   0.875
V81     V     0.375   0.1039   0.3539
V82     V     0.375   0.1039   0.8539
V83     V     0.375   0.6039   0.3539
V84     V     0.375   0.6039   0.8539
V85     V     0.875   0.1039   0.3539
V86     V     0.875   0.1039   0.8539
V87     V     0.875   0.6039   0.3539
V88     V     0.875   0.6039   0.8539
V89     V     0.3539   0.125   0.3961
V90     V     0.3539   0.125   0.8961
V91     V     0.3539   0.625   0.3961
V92     V     0.3539   0.625   0.8961
V93     V     0.8539   0.125   0.3961
V94     V     0.8539   0.125   0.8961
V95     V     0.8539   0.625   0.3961
V96     V     0.8539   0.625   0.8961
V97     V     0.3539   0.3961   0.375
V98     V     0.3539   0.3961   0.875
V99     V     0.3539   0.8961   0.375
V100     V     0.3539   0.8961   0.875
V101     V     0.8539   0.3961   0.375
V102     V     0.8539   0.3961   0.875
V103     V     0.8539   0.8961   0.375
V104     V     0.8539   0.8961   0.875
V105     V     0.3961   0.375   0.3539
V106     V     0.3961   0.375   0.8539
V107     V     0.3961   0.875   0.3539
V108     V     0.3961   0.875   0.8539
V109     V     0.8961   0.375   0.3539
V110     V     0.8961   0.375   0.8539
V111     V     0.8961   0.875   0.3539
V112     V     0.8961   0.875   0.8539
V113     V     0.375   0.3539   0.3961
V114     V     0.375   0.3539   0.8961
V115     V     0.375   0.8539   0.3961
V116     V     0.375   0.8539   0.8961
V117     V     0.875   0.3539   0.3961
V118     V     0.875   0.3539   0.8961
V119     V     0.875   0.8539   0.3961
V120     V     0.875   0.8539   0.8961
V121     V     0.1039   0.3539   0.375
V122     V     0.1039   0.3539   0.875
V123     V     0.1039   0.8539   0.375
V124     V     0.1039   0.8539   0.875
V125     V     0.6039   0.3539   0.375
V126     V     0.6039   0.3539   0.875
V127     V     0.6039   0.8539   0.375
V128     V     0.6039   0.8539   0.875
V129     V     0.1461   0.375   0.3961
V130     V     0.1461   0.375   0.8961
V131     V     0.1461   0.875   0.3961
V132     V     0.1461   0.875   0.8961
V133     V     0.6461   0.375   0.3961
V134     V     0.6461   0.375   0.8961
V135     V     0.6461   0.875   0.3961
V136     V     0.6461   0.875   0.8961
V137     V     0.125   0.3961   0.3539
V138     V     0.125   0.3961   0.8539
V139     V     0.125   0.8961   0.3539
V140     V     0.125   0.8961   0.8539
V141     V     0.625   0.3961   0.3539
V142     V     0.625   0.3961   0.8539
V143     V     0.625   0.8961   0.3539
V144     V     0.625   0.8961   0.8539
V145     V     0.1461   0.1039   0.375
V146     V     0.1461   0.1039   0.875
V147     V     0.1461   0.6039   0.375
V148     V     0.1461   0.6039   0.875
V149     V     0.6461   0.1039   0.375
V150     V     0.6461   0.1039   0.875
V151     V     0.6461   0.6039   0.375
V152     V     0.6461   0.6039   0.875
V153     V     0.125   0.1461   0.3961
V154     V     0.125   0.1461   0.8961
V155     V     0.125   0.6461   0.3961
V156     V     0.125   0.6461   0.8961
V157     V     0.625   0.1461   0.3961
V158     V     0.625   0.1461   0.8961
V159     V     0.625   0.6461   0.3961
V160     V     0.625   0.6461   0.8961
V161     V     0.1039   0.125   0.3539
V162     V     0.1039   0.125   0.8539
V163     V     0.1039   0.625   0.3539
V164     V     0.1039   0.625   0.8539
V165     V     0.6039   0.125   0.3539
V166     V     0.6039   0.125   0.8539
V167     V     0.6039   0.625   0.3539
V168     V     0.6039   0.625   0.8539
V169     V     0.1039   0.1461   0.125
V170     V     0.1039   0.1461   0.625
V171     V     0.1039   0.6461   0.125
V172     V     0.1039   0.6461   0.625
V173     V     0.6039   0.1461   0.125
V174     V     0.6039   0.1461   0.625
V175     V     0.6039   0.6461   0.125
V176     V     0.6039   0.6461   0.625
V177     V     0.125   0.1039   0.1461
V178     V     0.125   0.1039   0.6461
V179     V     0.125   0.6039   0.1461
V180     V     0.125   0.6039   0.6461
V181     V     0.625   0.1039   0.1461
V182     V     0.625   0.1039   0.6461
V183     V     0.625   0.6039   0.1461
V184     V     0.625   0.6039   0.6461
V185     V     0.1461   0.125   0.1039
V186     V     0.1461   0.125   0.6039
V187     V     0.1461   0.625   0.1039
V188     V     0.1461   0.625   0.6039
V189     V     0.6461   0.125   0.1039
V190     V     0.6461   0.125   0.6039
V191     V     0.6461   0.625   0.1039
V192     V     0.6461   0.625   0.6039
loop_
_geom_bond_atom_site_label_1
_geom_bond_atom_site_label_2
_geom_bond_distance
_geom_bond_site_symmetry_2
_ccdc_geom_bond_type
V1     V82    10.0   1_554     S
V1     V169    10.0   .     S
V1     V165    10.0   .     S
V2     V81    10.0   .     S
V2     V170    10.0   .     S
V2     V166    10.0   .     S
V3     V84    10.0   1_554     S
V3     V171    10.0   .     S
V3     V167    10.0   .     S
V4     V83    10.0   .     S
V4     V172    10.0   .     S
V4     V168    10.0   .     S
V5     V86    10.0   1_554     S
V5     V173    10.0   .     S
V5     V161    10.0   1_655     S
V6     V85    10.0   .     S
V6     V174    10.0   .     S
V6     V162    10.0   1_655     S
V7     V88    10.0   1_554     S
V7     V175    10.0   .     S
V7     V163    10.0   1_655     S
V8     V87    10.0   .     S
V8     V176    10.0   .     S
V8     V164    10.0   1_655     S
V9     V43    10.0   1_545     S
V9     V89    10.0   .     S
V9     V114    10.0   1_554     S
V10     V44    10.0   1_545     S
V10     V90    10.0   .     S
V10     V113    10.0   .     S
V11     V41    10.0   .     S
V11     V91    10.0   .     S
V11     V116    10.0   1_554     S
V12     V42    10.0   .     S
V12     V92    10.0   .     S
V12     V115    10.0   .     S
V13     V47    10.0   1_545     S
V13     V93    10.0   .     S
V13     V118    10.0   1_554     S
V14     V48    10.0   1_545     S
V14     V94    10.0   .     S
V14     V117    10.0   .     S
V15     V45    10.0   .     S
V15     V95    10.0   .     S
V15     V120    10.0   1_554     S
V16     V46    10.0   .     S
V16     V96    10.0   .     S
V16     V119    10.0   .     S
V17     V25    10.0   .     S
V17     V189    10.0   .     S
V17     V51    10.0   1_545     S
V18     V26    10.0   .     S
V18     V190    10.0   .     S
V18     V52    10.0   1_545     S
V19     V27    10.0   .     S
V19     V191    10.0   .     S
V19     V49    10.0   .     S
V20     V28    10.0   .     S
V20     V192    10.0   .     S
V20     V50    10.0   .     S
V21     V29    10.0   .     S
V21     V185    10.0   1_655     S
V21     V55    10.0   1_545     S
V22     V30    10.0   .     S
V22     V186    10.0   1_655     S
V22     V56    10.0   1_545     S
V23     V31    10.0   .     S
V23     V187    10.0   1_655     S
V23     V53    10.0   .     S
V24     V32    10.0   .     S
V24     V188    10.0   1_655     S
V24     V54    10.0   .     S
V25     V106    10.0   1_554     S
V25     V83    10.0   .     S
V26     V105    10.0   .     S
V26     V84    10.0   .     S
V27     V108    10.0   1_554     S
V27     V81    10.0   1_565     S
V28     V107    10.0   .     S
V28     V82    10.0   1_565     S
V29     V110    10.0   1_554     S
V29     V87    10.0   .     S
V30     V109    10.0   .     S
V30     V88    10.0   .     S
V31     V112    10.0   1_554     S
V31     V85    10.0   1_565     S
V32     V111    10.0   .     S
V32     V86    10.0   1_565     S
V33     V53    10.0   .     S
V33     V113    10.0   .     S
V33     V130    10.0   1_554     S
V34     V54    10.0   .     S
V34     V114    10.0   .     S
V34     V129    10.0   .     S
V35     V55    10.0   .     S
V35     V115    10.0   .     S
V35     V132    10.0   1_554     S
V36     V56    10.0   .     S
V36     V116    10.0   .     S
V36     V131    10.0   .     S
V37     V49    10.0   1_655     S
V37     V117    10.0   .     S
V37     V134    10.0   1_554     S
V38     V50    10.0   1_655     S
V38     V118    10.0   .     S
V38     V133    10.0   .     S
V39     V51    10.0   1_655     S
V39     V119    10.0   .     S
V39     V136    10.0   1_554     S
V40     V52    10.0   1_655     S
V40     V120    10.0   .     S
V40     V135    10.0   .     S
V41     V57    10.0   .     S
V41     V173    10.0   .     S
V42     V58    10.0   .     S
V42     V174    10.0   .     S
V43     V59    10.0   .     S
V43     V9    10.0   1_565     S
V43     V175    10.0   .     S
V44     V60    10.0   .     S
V44     V10    10.0   1_565     S
V44     V176    10.0   .     S
V45     V61    10.0   .     S
V45     V169    10.0   1_655     S
V46     V62    10.0   .     S
V46     V170    10.0   1_655     S
V47     V63    10.0   .     S
V47     V13    10.0   1_565     S
V47     V171    10.0   1_655     S
V48     V64    10.0   .     S
V48     V14    10.0   1_565     S
V48     V172    10.0   1_655     S
V49     V177    10.0   .     S
V49     V37    10.0   1_455     S
V50     V178    10.0   .     S
V50     V38    10.0   1_455     S
V51     V179    10.0   .     S
V51     V39    10.0   1_455     S
V51     V17    10.0   1_565     S
V52     V180    10.0   .     S
V52     V40    10.0   1_455     S
V52     V18    10.0   1_565     S
V53     V181    10.0   .     S
V54     V182    10.0   .     S
V55     V183    10.0   .     S
V55     V21    10.0   1_565     S
V56     V184    10.0   .     S
V56     V22    10.0   1_565     S
V57     V138    10.0   1_554     S
V57     V109    10.0   1_455     S
V58     V137    10.0   .     S
V58     V110    10.0   1_455     S
V59     V140    10.0   1_554     S
V59     V111    10.0   1_455     S
V60     V139    10.0   .     S
V60     V112    10.0   1_455     S
V61     V142    10.0   1_554     S
V61     V105    10.0   .     S
V62     V141    10.0   .     S
V62     V106    10.0   .     S
V63     V144    10.0   1_554     S
V63     V107    10.0   .     S
V64     V143    10.0   .     S
V64     V108    10.0   .     S
V65     V171    10.0   .     S
V65     V129    10.0   .     S
V65     V154    10.0   1_554     S
V66     V172    10.0   .     S
V66     V130    10.0   .     S
V66     V153    10.0   .     S
V67     V169    10.0   1_565     S
V67     V131    10.0   .     S
V67     V156    10.0   1_554     S
V68     V170    10.0   1_565     S
V68     V132    10.0   .     S
V68     V155    10.0   .     S
V69     V175    10.0   .     S
V69     V133    10.0   .     S
V69     V158    10.0   1_554     S
V70     V176    10.0   .     S
V70     V134    10.0   .     S
V70     V157    10.0   .     S
V71     V173    10.0   1_565     S
V71     V135    10.0   .     S
V71     V160    10.0   1_554     S
V72     V174    10.0   1_565     S
V72     V136    10.0   .     S
V72     V159    10.0   .     S
V73     V115    10.0   1_545     S
V73     V161    10.0   .     S
V73     V125    10.0   .     S
V74     V116    10.0   1_545     S
V74     V162    10.0   .     S
V74     V126    10.0   .     S
V75     V113    10.0   .     S
V75     V163    10.0   .     S
V75     V127    10.0   .     S
V76     V114    10.0   .     S
V76     V164    10.0   .     S
V76     V128    10.0   .     S
V77     V119    10.0   1_545     S
V77     V165    10.0   .     S
V77     V121    10.0   1_655     S
V78     V120    10.0   1_545     S
V78     V166    10.0   .     S
V78     V122    10.0   1_655     S
V79     V117    10.0   .     S
V79     V167    10.0   .     S
V79     V123    10.0   1_655     S
V80     V118    10.0   .     S
V80     V168    10.0   .     S
V80     V124    10.0   1_655     S
V81     V97    10.0   .     S
V81     V27    10.0   1_545     S
V82     V1    10.0   1_556     S
V82     V98    10.0   .     S
V82     V28    10.0   1_545     S
V83     V99    10.0   .     S
V84     V3    10.0   1_556     S
V84     V100    10.0   .     S
V85     V101    10.0   .     S
V85     V31    10.0   1_545     S
V86     V5    10.0   1_556     S
V86     V102    10.0   .     S
V86     V32    10.0   1_545     S
V87     V103    10.0   .     S
V88     V7    10.0   1_556     S
V88     V104    10.0   .     S
V89     V149    10.0   .     S
V89     V186    10.0   .     S
V90     V150    10.0   .     S
V90     V185    10.0   1_556     S
V91     V151    10.0   .     S
V91     V188    10.0   .     S
V92     V152    10.0   .     S
V92     V187    10.0   1_556     S
V93     V145    10.0   1_655     S
V93     V190    10.0   .     S
V94     V146    10.0   1_655     S
V94     V189    10.0   1_556     S
V95     V147    10.0   1_655     S
V95     V192    10.0   .     S
V96     V148    10.0   1_655     S
V96     V191    10.0   1_556     S
V97     V133    10.0   .     S
V97     V147    10.0   .     S
V98     V134    10.0   .     S
V98     V148    10.0   .     S
V99     V135    10.0   .     S
V99     V145    10.0   1_565     S
V100     V136    10.0   .     S
V100     V146    10.0   1_565     S
V101     V129    10.0   1_655     S
V101     V151    10.0   .     S
V102     V130    10.0   1_655     S
V102     V152    10.0   .     S
V103     V131    10.0   1_655     S
V103     V149    10.0   1_565     S
V104     V132    10.0   1_655     S
V104     V150    10.0   1_565     S
V105     V121    10.0   .     S
V106     V25    10.0   1_556     S
V106     V122    10.0   .     S
V107     V123    10.0   .     S
V108     V27    10.0   1_556     S
V108     V124    10.0   .     S
V109     V125    10.0   .     S
V109     V57    10.0   1_655     S
V110     V29    10.0   1_556     S
V110     V126    10.0   .     S
V110     V58    10.0   1_655     S
V111     V127    10.0   .     S
V111     V59    10.0   1_655     S
V112     V31    10.0   1_556     S
V112     V128    10.0   .     S
V112     V60    10.0   1_655     S
V114     V9    10.0   1_556     S
V115     V73    10.0   1_565     S
V116     V74    10.0   1_565     S
V116     V11    10.0   1_556     S
V118     V13    10.0   1_556     S
V119     V77    10.0   1_565     S
V120     V78    10.0   1_565     S
V120     V15    10.0   1_556     S
V121     V155    10.0   .     S
V121     V77    10.0   1_455     S
V122     V156    10.0   .     S
V122     V78    10.0   1_455     S
V123     V153    10.0   1_565     S
V123     V79    10.0   1_455     S
V124     V154    10.0   1_565     S
V124     V80    10.0   1_455     S
V125     V159    10.0   .     S
V126     V160    10.0   .     S
V127     V157    10.0   1_565     S
V128     V158    10.0   1_565     S
V129     V101    10.0   1_455     S
V130     V102    10.0   1_455     S
V130     V33    10.0   1_556     S
V131     V103    10.0   1_455     S
V132     V104    10.0   1_455     S
V132     V35    10.0   1_556     S
V134     V37    10.0   1_556     S
V136     V39    10.0   1_556     S
V137     V145    10.0   .     S
V137     V179    10.0   .     S
V138     V146    10.0   .     S
V138     V57    10.0   1_556     S
V138     V180    10.0   .     S
V139     V147    10.0   .     S
V139     V177    10.0   1_565     S
V140     V148    10.0   .     S
V140     V59    10.0   1_556     S
V140     V178    10.0   1_565     S
V141     V149    10.0   .     S
V141     V183    10.0   .     S
V142     V150    10.0   .     S
V142     V61    10.0   1_556     S
V142     V184    10.0   .     S
V143     V151    10.0   .     S
V143     V181    10.0   1_565     S
V144     V152    10.0   .     S
V144     V63    10.0   1_556     S
V144     V182    10.0   1_565     S
V145     V93    10.0   1_455     S
V145     V99    10.0   1_545     S
V146     V94    10.0   1_455     S
V146     V100    10.0   1_545     S
V147     V95    10.0   1_455     S
V148     V96    10.0   1_455     S
V149     V103    10.0   1_545     S
V150     V104    10.0   1_545     S
V153     V185    10.0   .     S
V153     V123    10.0   1_545     S
V154     V186    10.0   .     S
V154     V124    10.0   1_545     S
V154     V65    10.0   1_556     S
V155     V187    10.0   .     S
V156     V188    10.0   .     S
V156     V67    10.0   1_556     S
V157     V189    10.0   .     S
V157     V127    10.0   1_545     S
V158     V190    10.0   .     S
V158     V128    10.0   1_545     S
V158     V69    10.0   1_556     S
V159     V191    10.0   .     S
V160     V192    10.0   .     S
V160     V71    10.0   1_556     S
V161     V178    10.0   .     S
V161     V5    10.0   1_455     S
V162     V177    10.0   1_556     S
V162     V6    10.0   1_455     S
V163     V180    10.0   .     S
V163     V7    10.0   1_455     S
V164     V179    10.0   1_556     S
V164     V8    10.0   1_455     S
V165     V182    10.0   .     S
V166     V181    10.0   1_556     S
V167     V184    10.0   .     S
V168     V183    10.0   1_556     S
V169     V67    10.0   1_545     S
V169     V45    10.0   1_455     S
V170     V68    10.0   1_545     S
V170     V46    10.0   1_455     S
V171     V47    10.0   1_455     S
V172     V48    10.0   1_455     S
V173     V71    10.0   1_545     S
V174     V72    10.0   1_545     S
V177     V162    10.0   1_554     S
V177     V139    10.0   1_545     S
V178     V140    10.0   1_545     S
V179     V164    10.0   1_554     S
V181     V166    10.0   1_554     S
V181     V143    10.0   1_545     S
V182     V144    10.0   1_545     S
V183     V168    10.0   1_554     S
V185     V21    10.0   1_455     S
V185     V90    10.0   1_554     S
V186     V22    10.0   1_455     S
V187     V23    10.0   1_455     S
V187     V92    10.0   1_554     S
V188     V24    10.0   1_455     S
V189     V94    10.0   1_554     S
V191     V96    10.0   1_554     S
