data_tav
_audit_creation_date              2019-12-31
_audit_creation_method            'Pymatgen'
_symmetry_space_group_name_H-M    'P1'
_symmetry_Int_Tables_number       1
loop_
_symmetry_equiv_pos_as_xyz
  x,y,z
_cell_length_a                    39.4686
_cell_length_b                    27.8065
_cell_length_c                    39.5294
_cell_angle_alpha                 90.0
_cell_angle_beta                 119.1578
_cell_angle_gamma                 90.0
loop_
_atom_site_label
_atom_site_type_symbol
_atom_site_fract_x
_atom_site_fract_y
_atom_site_fract_z
Er1     Er     0.25   0.5614   0.375
Er2     Er     0.25   0.5614   0.875
Er3     Er     0.75   0.5614   0.375
Er4     Er     0.75   0.5614   0.875
V5     V     0.125   0.25   0.25
V6     V     0.125   0.25   0.75
V7     V     0.625   0.25   0.25
V8     V     0.625   0.25   0.75
V9     V     0.375   0.25   0.0
V10     V     0.375   0.25   0.5
V11     V     0.875   0.25   0.0
V12     V     0.875   0.25   0.5
Er13     Er     0.0   0.9386   0.125
Er14     Er     0.0   0.9386   0.625
Er15     Er     0.5   0.9386   0.125
Er16     Er     0.5   0.9386   0.625
Er17     Er     0.25   0.4386   0.125
Er18     Er     0.25   0.4386   0.625
Er19     Er     0.75   0.4386   0.125
Er20     Er     0.75   0.4386   0.625
V21     V     0.125   0.75   0.0
V22     V     0.125   0.75   0.5
V23     V     0.625   0.75   0.0
V24     V     0.625   0.75   0.5
V25     V     0.375   0.75   0.25
V26     V     0.375   0.75   0.75
V27     V     0.875   0.75   0.25
V28     V     0.875   0.75   0.75
Er29     Er     0.0   0.0614   0.375
Er30     Er     0.0   0.0614   0.875
Er31     Er     0.5   0.0614   0.375
Er32     Er     0.5   0.0614   0.875
loop_
_geom_bond_atom_site_label_1
_geom_bond_atom_site_label_2
_geom_bond_distance
_geom_bond_site_symmetry_2
_ccdc_geom_bond_type
Er1     V10    10.0   .     S
Er1     V5    10.0   .     S
Er1     V25    10.0   .     S
Er1     V22    10.0   .     S
Er2     V9    10.0   1_556     S
Er2     V6    10.0   .     S
Er2     V26    10.0   .     S
Er2     V21    10.0   1_556     S
Er3     V12    10.0   .     S
Er3     V7    10.0   .     S
Er3     V27    10.0   .     S
Er3     V24    10.0   .     S
Er4     V11    10.0   1_556     S
Er4     V8    10.0   .     S
Er4     V28    10.0   .     S
Er4     V23    10.0   1_556     S
V5     Er13    10.0   1_545     S
V5     V11    10.0   1_455     S
V5     V10    10.0   .     S
V5     Er17    10.0   .     S
V5     Er29    10.0   .     S
V6     Er14    10.0   1_545     S
V6     V12    10.0   1_455     S
V6     V9    10.0   1_556     S
V6     Er18    10.0   .     S
V6     Er30    10.0   .     S
V7     Er15    10.0   1_545     S
V7     V9    10.0   .     S
V7     V12    10.0   .     S
V7     Er19    10.0   .     S
V7     Er31    10.0   .     S
V8     Er16    10.0   1_545     S
V8     V10    10.0   .     S
V8     V11    10.0   1_556     S
V8     Er20    10.0   .     S
V8     Er32    10.0   .     S
V9     Er2    10.0   1_554     S
V9     Er15    10.0   1_545     S
V9     V6    10.0   1_554     S
V9     Er17    10.0   .     S
V9     Er32    10.0   1_554     S
V10     Er16    10.0   1_545     S
V10     Er18    10.0   .     S
V10     Er31    10.0   .     S
V11     Er4    10.0   1_554     S
V11     V5    10.0   1_655     S
V11     Er13    10.0   1_645     S
V11     V8    10.0   1_554     S
V11     Er19    10.0   .     S
V11     Er30    10.0   1_654     S
V12     V6    10.0   1_655     S
V12     Er14    10.0   1_645     S
V12     Er20    10.0   .     S
V12     Er29    10.0   1_655     S
Er13     V5    10.0   1_565     S
Er13     V11    10.0   1_465     S
Er13     V21    10.0   .     S
Er13     V27    10.0   1_455     S
Er14     V6    10.0   1_565     S
Er14     V12    10.0   1_465     S
Er14     V22    10.0   .     S
Er14     V28    10.0   1_455     S
Er15     V7    10.0   1_565     S
Er15     V9    10.0   1_565     S
Er15     V23    10.0   .     S
Er15     V25    10.0   .     S
Er16     V8    10.0   1_565     S
Er16     V10    10.0   1_565     S
Er16     V24    10.0   .     S
Er16     V26    10.0   .     S
Er17     V25    10.0   .     S
Er17     V21    10.0   .     S
Er18     V26    10.0   .     S
Er18     V22    10.0   .     S
Er19     V27    10.0   .     S
Er19     V23    10.0   .     S
Er20     V28    10.0   .     S
Er20     V24    10.0   .     S
V21     Er30    10.0   1_564     S
V21     V28    10.0   1_454     S
V21     V25    10.0   .     S
V21     Er2    10.0   1_554     S
V22     Er29    10.0   1_565     S
V22     V27    10.0   1_455     S
V22     V26    10.0   .     S
V23     Er32    10.0   1_564     S
V23     V26    10.0   1_554     S
V23     V27    10.0   .     S
V23     Er4    10.0   1_554     S
V24     Er31    10.0   1_565     S
V24     V25    10.0   .     S
V24     V28    10.0   .     S
V25     Er31    10.0   1_565     S
V26     V23    10.0   1_556     S
V26     Er32    10.0   1_565     S
V27     Er13    10.0   1_655     S
V27     V22    10.0   1_655     S
V27     Er29    10.0   1_665     S
V28     Er14    10.0   1_655     S
V28     V21    10.0   1_656     S
V28     Er30    10.0   1_665     S
Er29     V22    10.0   1_545     S
Er29     V27    10.0   1_445     S
Er29     V12    10.0   1_455     S
Er30     V21    10.0   1_546     S
Er30     V28    10.0   1_445     S
Er30     V11    10.0   1_456     S
Er31     V24    10.0   1_545     S
Er31     V25    10.0   1_545     S
Er32     V23    10.0   1_546     S
Er32     V26    10.0   1_545     S
Er32     V9    10.0   1_556     S
