data_tbr
_audit_creation_date              2019-12-31
_audit_creation_method            'Pymatgen'
_symmetry_space_group_name_H-M    'P1'
_symmetry_Int_Tables_number       1
loop_
_symmetry_equiv_pos_as_xyz
  x,y,z
_cell_length_a                    45.1086
_cell_length_b                    45.1086
_cell_length_c                    28.3172
_cell_angle_alpha                 90.0
_cell_angle_beta                 90.0
_cell_angle_gamma                 90.0
loop_
_atom_site_label
_atom_site_type_symbol
_atom_site_fract_x
_atom_site_fract_y
_atom_site_fract_z
Ce1     Ce     0.6401   0.429   0.25
Ce2     Ce     0.6401   0.429   0.75
Er3     Er     0.8453   0.5006   0.25
Er4     Er     0.8453   0.5006   0.75
Ce5     Ce     0.071   0.8599   0.25
Ce6     Ce     0.071   0.8599   0.75
Er7     Er     0.9993   0.6547   0.25
Er8     Er     0.9993   0.6547   0.75
Ce9     Ce     0.3599   0.571   0.25
Ce10     Ce     0.3599   0.571   0.75
Er11     Er     0.1547   0.4994   0.25
Er12     Er     0.1547   0.4994   0.75
Ce13     Ce     0.929   0.1401   0.25
Ce14     Ce     0.929   0.1401   0.75
Er15     Er     0.0006   0.3453   0.25
Er16     Er     0.0006   0.3453   0.75
Ti17     Ti     0.9265   0.7902   0.0
Ti18     Ti     0.9265   0.7902   0.5
Ti19     Ti     0.0735   0.2098   0.0
Ti20     Ti     0.0735   0.2098   0.5
Ti21     Ti     0.2902   0.4265   0.0
Ti22     Ti     0.2902   0.4265   0.5
Ti23     Ti     0.7098   0.5735   0.0
Ti24     Ti     0.7098   0.5735   0.5
Ce25     Ce     0.571   0.6401   0.25
Ce26     Ce     0.571   0.6401   0.75
Er27     Er     0.4994   0.8453   0.25
Er28     Er     0.4994   0.8453   0.75
Ce29     Ce     0.1401   0.071   0.25
Ce30     Ce     0.1401   0.071   0.75
Er31     Er     0.3453   0.9993   0.25
Er32     Er     0.3453   0.9993   0.75
Ce33     Ce     0.429   0.3599   0.25
Ce34     Ce     0.429   0.3599   0.75
Er35     Er     0.5006   0.1547   0.25
Er36     Er     0.5006   0.1547   0.75
Ce37     Ce     0.8599   0.929   0.25
Ce38     Ce     0.8599   0.929   0.75
Er39     Er     0.6547   0.0006   0.25
Er40     Er     0.6547   0.0006   0.75
Ti41     Ti     0.7902   0.0735   0.0
Ti42     Ti     0.7902   0.0735   0.5
Ti43     Ti     0.2098   0.9265   0.0
Ti44     Ti     0.2098   0.9265   0.5
Ti45     Ti     0.5735   0.2902   0.0
Ti46     Ti     0.5735   0.2902   0.5
Ti47     Ti     0.4265   0.7098   0.0
Ti48     Ti     0.4265   0.7098   0.5
V49     V     0.0   0.5   0.0
V50     V     0.0   0.5   0.5
V51     V     0.5   0.0   0.0
V52     V     0.5   0.0   0.5
S53     S     0.2848   0.7848   0.25
S54     S     0.2848   0.7848   0.75
S55     S     0.2152   0.2848   0.25
S56     S     0.2152   0.2848   0.75
S57     S     0.7848   0.7152   0.25
S58     S     0.7848   0.7152   0.75
S59     S     0.7152   0.2152   0.25
S60     S     0.7152   0.2152   0.75
loop_
_geom_bond_atom_site_label_1
_geom_bond_atom_site_label_2
_geom_bond_distance
_geom_bond_site_symmetry_2
_ccdc_geom_bond_type
Ce1     Ti24    10.124   .     S
Ce1     Ti23    10.124   .     S
Ce1     Ce25    10.02   .     S
Ce1     Ce33    10.02   .     S
Ce1     Er3    9.805   .     S
Ce1     S59    10.221   .     S
Ce1     Ti46    9.918   .     S
Ce1     Ti45    9.918   .     S
Ce2     Ti23    10.124   1_556     S
Ce2     Ti24    10.124   .     S
Ce2     Ce26    10.02   .     S
Ce2     Ce34    10.02   .     S
Ce2     Er4    9.805   .     S
Ce2     S60    10.221   .     S
Ce2     Ti45    9.918   1_556     S
Ce2     Ti46    9.918   .     S
Er3     V50    9.94   1_655     S
Er3     V49    9.94   1_655     S
Er3     S57    10.057   .     S
Er3     Er7    9.826   .     S
Er3     Ti24    9.913   .     S
Er3     Ti23    9.913   .     S
Er3     Er15    9.909   1_655     S
Er4     V49    9.94   1_656     S
Er4     V50    9.94   1_655     S
Er4     S58    10.057   .     S
Er4     Er8    9.826   .     S
Er4     Ti23    9.913   1_556     S
Er4     Ti24    9.913   .     S
Er4     Er16    9.909   1_655     S
Ce5     Ti18    10.124   1_455     S
Ce5     Ti17    10.124   1_455     S
Ce5     Ce37    10.02   1_455     S
Ce5     Ce29    10.02   1_565     S
Ce5     Er7    9.805   1_455     S
Ce5     S53    10.221   .     S
Ce5     Ti43    9.918   .     S
Ce5     Ti44    9.918   .     S
Ce6     Ti17    10.124   1_456     S
Ce6     Ti18    10.124   1_455     S
Ce6     Ce38    10.02   1_455     S
Ce6     Ce30    10.02   1_565     S
Ce6     Er8    9.805   1_455     S
Ce6     S54    10.221   .     S
Ce6     Ti44    9.918   .     S
Ce6     Ti43    9.918   1_556     S
Er7     V50    9.94   1_655     S
Er7     V49    9.94   1_655     S
Er7     Ce5    9.805   1_655     S
Er7     S57    10.057   .     S
Er7     Ti18    9.913   .     S
Er7     Ti17    9.913   .     S
Er7     Er11    9.909   1_655     S
Er8     V49    9.94   1_656     S
Er8     V50    9.94   1_655     S
Er8     Ce6    9.805   1_655     S
Er8     S58    10.057   .     S
Er8     Ti17    9.913   1_556     S
Er8     Ti18    9.913   .     S
Er8     Er12    9.909   1_655     S
Ce9     Ti21    10.124   .     S
Ce9     Ti22    10.124   .     S
Ce9     Ce25    10.02   .     S
Ce9     Ce33    10.02   .     S
Ce9     Er11    9.805   .     S
Ce9     S53    10.221   .     S
Ce9     Ti48    9.918   .     S
Ce9     Ti47    9.918   .     S
Ce10     Ti22    10.124   .     S
Ce10     Ti21    10.124   1_556     S
Ce10     Ce26    10.02   .     S
Ce10     Ce34    10.02   .     S
Ce10     Er12    9.805   .     S
Ce10     S54    10.221   .     S
Ce10     Ti47    9.918   1_556     S
Ce10     Ti48    9.918   .     S
Er11     V50    9.94   .     S
Er11     V49    9.94   .     S
Er11     S55    10.057   .     S
Er11     Er15    9.826   .     S
Er11     Ti21    9.913   .     S
Er11     Ti22    9.913   .     S
Er11     Er7    9.909   1_455     S
Er12     V49    9.94   1_556     S
Er12     V50    9.94   .     S
Er12     S56    10.057   .     S
Er12     Er16    9.826   .     S
Er12     Ti22    9.913   .     S
Er12     Ti21    9.913   1_556     S
Er12     Er8    9.909   1_455     S
Ce13     Ti20    10.124   1_655     S
Ce13     Ti19    10.124   1_655     S
Ce13     Ce37    10.02   1_545     S
Ce13     Ce29    10.02   1_655     S
Ce13     Er15    9.805   1_655     S
Ce13     S59    10.221   .     S
Ce13     Ti41    9.918   .     S
Ce13     Ti42    9.918   .     S
Ce14     Ti19    10.124   1_656     S
Ce14     Ti20    10.124   1_655     S
Ce14     Ce38    10.02   1_545     S
Ce14     Ce30    10.02   1_655     S
Ce14     Er16    9.805   1_655     S
Ce14     S60    10.221   .     S
Ce14     Ti42    9.918   .     S
Ce14     Ti41    9.918   1_556     S
Er15     V50    9.94   .     S
Er15     V49    9.94   .     S
Er15     Ce13    9.805   1_455     S
Er15     S55    10.057   .     S
Er15     Ti20    9.913   .     S
Er15     Ti19    9.913   .     S
Er15     Er3    9.909   1_455     S
Er16     V49    9.94   1_556     S
Er16     V50    9.94   .     S
Er16     Ce14    9.805   1_455     S
Er16     S56    10.057   .     S
Er16     Ti19    9.913   1_556     S
Er16     Ti20    9.913   .     S
Er16     Er4    9.909   1_455     S
Ti17     S57    10.12   .     S
Ti17     S58    10.12   1_554     S
Ti17     Ce6    10.124   1_654     S
Ti17     Ce5    10.124   1_655     S
Ti17     Er8    9.913   1_554     S
Ti17     Ce37    9.918   .     S
Ti17     Ce38    9.918   1_554     S
Ti18     S58    10.12   .     S
Ti18     S57    10.12   .     S
Ti18     Ce5    10.124   1_655     S
Ti18     Ce6    10.124   1_655     S
Ti18     Ce38    9.918   .     S
Ti18     Ce37    9.918   .     S
Ti19     S55    10.12   .     S
Ti19     S56    10.12   1_554     S
Ti19     Ce14    10.124   1_454     S
Ti19     Ce13    10.124   1_455     S
Ti19     Er16    9.913   1_554     S
Ti19     Ce29    9.918   .     S
Ti19     Ce30    9.918   1_554     S
Ti20     S56    10.12   .     S
Ti20     S55    10.12   .     S
Ti20     Ce13    10.124   1_455     S
Ti20     Ce14    10.124   1_455     S
Ti20     Ce30    9.918   .     S
Ti20     Ce29    9.918   .     S
Ti21     S56    10.12   1_554     S
Ti21     S55    10.12   .     S
Ti21     Ce10    10.124   1_554     S
Ti21     Er12    9.913   1_554     S
Ti21     Ce34    9.918   1_554     S
Ti21     Ce33    9.918   .     S
Ti22     S55    10.12   .     S
Ti22     S56    10.12   .     S
Ti22     Ce33    9.918   .     S
Ti22     Ce34    9.918   .     S
Ti23     S58    10.12   1_554     S
Ti23     S57    10.12   .     S
Ti23     Ce2    10.124   1_554     S
Ti23     Er4    9.913   1_554     S
Ti23     Ce26    9.918   1_554     S
Ti23     Ce25    9.918   .     S
Ti24     S57    10.12   .     S
Ti24     S58    10.12   .     S
Ti24     Ce25    9.918   .     S
Ti24     Ce26    9.918   .     S
Ce25     Ti48    10.124   .     S
Ce25     Ti47    10.124   .     S
Ce25     Er27    9.805   .     S
Ce25     S57    10.221   .     S
Ce26     Ti47    10.124   1_556     S
Ce26     Ti48    10.124   .     S
Ce26     Er28    9.805   .     S
Ce26     S58    10.221   .     S
Ce26     Ti23    9.918   1_556     S
Er27     V52    9.94   1_565     S
Er27     V51    9.94   1_565     S
Er27     S53    10.057   .     S
Er27     Er31    9.826   .     S
Er27     Ti48    9.913   .     S
Er27     Ti47    9.913   .     S
Er27     Er39    9.909   1_565     S
Er28     V51    9.94   1_566     S
Er28     V52    9.94   1_565     S
Er28     S54    10.057   .     S
Er28     Er32    9.826   .     S
Er28     Ti47    9.913   1_556     S
Er28     Ti48    9.913   .     S
Er28     Er40    9.909   1_565     S
Ce29     Ti44    10.124   1_545     S
Ce29     Ti43    10.124   1_545     S
Ce29     Ce5    10.02   1_545     S
Ce29     Ce13    10.02   1_455     S
Ce29     Er31    9.805   1_545     S
Ce29     S55    10.221   .     S
Ce30     Ti43    10.124   1_546     S
Ce30     Ti44    10.124   1_545     S
Ce30     Ce6    10.02   1_545     S
Ce30     Ce14    10.02   1_455     S
Ce30     Er32    9.805   1_545     S
Ce30     S56    10.221   .     S
Ce30     Ti19    9.918   1_556     S
Er31     V52    9.94   1_565     S
Er31     V51    9.94   1_565     S
Er31     Ce29    9.805   1_565     S
Er31     S53    10.057   .     S
Er31     Ti44    9.913   .     S
Er31     Ti43    9.913   .     S
Er31     Er35    9.909   1_565     S
Er32     V51    9.94   1_566     S
Er32     V52    9.94   1_565     S
Er32     Ce30    9.805   1_565     S
Er32     S54    10.057   .     S
Er32     Ti43    9.913   1_556     S
Er32     Ti44    9.913   .     S
Er32     Er36    9.909   1_565     S
Ce33     Ti46    10.124   .     S
Ce33     Ti45    10.124   .     S
Ce33     Er35    9.805   .     S
Ce33     S55    10.221   .     S
Ce34     Ti45    10.124   1_556     S
Ce34     Ti46    10.124   .     S
Ce34     Er36    9.805   .     S
Ce34     S56    10.221   .     S
Ce34     Ti21    9.918   1_556     S
Er35     V52    9.94   .     S
Er35     V51    9.94   .     S
Er35     S59    10.057   .     S
Er35     Er39    9.826   .     S
Er35     Ti46    9.913   .     S
Er35     Ti45    9.913   .     S
Er35     Er31    9.909   1_545     S
Er36     V51    9.94   1_556     S
Er36     V52    9.94   .     S
Er36     S60    10.057   .     S
Er36     Er40    9.826   .     S
Er36     Ti45    9.913   1_556     S
Er36     Ti46    9.913   .     S
Er36     Er32    9.909   1_545     S
Ce37     Ti42    10.124   1_565     S
Ce37     Ti41    10.124   1_565     S
Ce37     Ce13    10.02   1_565     S
Ce37     Ce5    10.02   1_655     S
Ce37     Er39    9.805   1_565     S
Ce37     S57    10.221   .     S
Ce38     Ti41    10.124   1_566     S
Ce38     Ti42    10.124   1_565     S
Ce38     Ce14    10.02   1_565     S
Ce38     Ce6    10.02   1_655     S
Ce38     Er40    9.805   1_565     S
Ce38     S58    10.221   .     S
Ce38     Ti17    9.918   1_556     S
Er39     V52    9.94   .     S
Er39     V51    9.94   .     S
Er39     Ce37    9.805   1_545     S
Er39     S59    10.057   .     S
Er39     Ti42    9.913   .     S
Er39     Ti41    9.913   .     S
Er39     Er27    9.909   1_545     S
Er40     V51    9.94   1_556     S
Er40     V52    9.94   .     S
Er40     Ce38    9.805   1_545     S
Er40     S60    10.057   .     S
Er40     Ti41    9.913   1_556     S
Er40     Ti42    9.913   .     S
Er40     Er28    9.909   1_545     S
Ti41     S59    10.12   .     S
Ti41     S60    10.12   1_554     S
Ti41     Ce38    10.124   1_544     S
Ti41     Ce37    10.124   1_545     S
Ti41     Er40    9.913   1_554     S
Ti41     Ce14    9.918   1_554     S
Ti42     S60    10.12   .     S
Ti42     S59    10.12   .     S
Ti42     Ce37    10.124   1_545     S
Ti42     Ce38    10.124   1_545     S
Ti43     S53    10.12   .     S
Ti43     S54    10.12   1_554     S
Ti43     Ce30    10.124   1_564     S
Ti43     Ce29    10.124   1_565     S
Ti43     Er32    9.913   1_554     S
Ti43     Ce6    9.918   1_554     S
Ti44     S54    10.12   .     S
Ti44     S53    10.12   .     S
Ti44     Ce29    10.124   1_565     S
Ti44     Ce30    10.124   1_565     S
Ti45     S60    10.12   1_554     S
Ti45     S59    10.12   .     S
Ti45     Ce34    10.124   1_554     S
Ti45     Er36    9.913   1_554     S
Ti45     Ce2    9.918   1_554     S
Ti46     S59    10.12   .     S
Ti46     S60    10.12   .     S
Ti47     S54    10.12   1_554     S
Ti47     S53    10.12   .     S
Ti47     Ce26    10.124   1_554     S
Ti47     Er28    9.913   1_554     S
Ti47     Ce10    9.918   1_554     S
Ti48     S53    10.12   .     S
Ti48     S54    10.12   .     S
V49     Er4    9.94   1_454     S
V49     Er8    9.94   1_454     S
V49     Er12    9.94   1_554     S
V49     Er16    9.94   1_554     S
V49     Er7    9.94   1_455     S
V49     Er3    9.94   1_455     S
V50     Er3    9.94   1_455     S
V50     Er7    9.94   1_455     S
V50     Er8    9.94   1_455     S
V50     Er4    9.94   1_455     S
V51     Er28    9.94   1_544     S
V51     Er32    9.94   1_544     S
V51     Er36    9.94   1_554     S
V51     Er40    9.94   1_554     S
V51     Er31    9.94   1_545     S
V51     Er27    9.94   1_545     S
V52     Er27    9.94   1_545     S
V52     Er31    9.94   1_545     S
V52     Er32    9.94   1_545     S
V52     Er28    9.94   1_545     S
S54     Ti47    10.12   1_556     S
S54     Ti43    10.12   1_556     S
S56     Ti21    10.12   1_556     S
S56     Ti19    10.12   1_556     S
S58     Ti23    10.12   1_556     S
S58     Ti17    10.12   1_556     S
S60     Ti45    10.12   1_556     S
S60     Ti41    10.12   1_556     S
