data_tca
_audit_creation_date              2019-12-31
_audit_creation_method            'Pymatgen'
_symmetry_space_group_name_H-M    'P1'
_symmetry_Int_Tables_number       1
loop_
_symmetry_equiv_pos_as_xyz
  x,y,z
_cell_length_a                    30.0
_cell_length_b                    30.0
_cell_length_c                    36.3299
_cell_angle_alpha                 90.0
_cell_angle_beta                 90.0
_cell_angle_gamma                 120.0
loop_
_atom_site_label
_atom_site_type_symbol
_atom_site_fract_x
_atom_site_fract_y
_atom_site_fract_z
V1     V     0.2222   0.1111   0.6124
V2     V     0.2222   0.4444   0.6124
V3     V     0.2222   0.7778   0.6124
V4     V     0.5556   0.1111   0.6124
V5     V     0.5556   0.4444   0.6124
V6     V     0.5556   0.7778   0.6124
V7     V     0.8889   0.1111   0.6124
V8     V     0.8889   0.4444   0.6124
V9     V     0.8889   0.7778   0.6124
V10     V     0.1111   0.2222   0.3876
V11     V     0.1111   0.5556   0.3876
V12     V     0.1111   0.8889   0.3876
V13     V     0.4444   0.2222   0.3876
V14     V     0.4444   0.5556   0.3876
V15     V     0.4444   0.8889   0.3876
V16     V     0.7778   0.2222   0.3876
V17     V     0.7778   0.5556   0.3876
V18     V     0.7778   0.8889   0.3876
V19     V     0.2222   0.1111   0.8876
V20     V     0.2222   0.4444   0.8876
V21     V     0.2222   0.7778   0.8876
V22     V     0.5556   0.1111   0.8876
V23     V     0.5556   0.4444   0.8876
V24     V     0.5556   0.7778   0.8876
V25     V     0.8889   0.1111   0.8876
V26     V     0.8889   0.4444   0.8876
V27     V     0.8889   0.7778   0.8876
V28     V     0.1111   0.2222   0.1124
V29     V     0.1111   0.5556   0.1124
V30     V     0.1111   0.8889   0.1124
V31     V     0.4444   0.2222   0.1124
V32     V     0.4444   0.5556   0.1124
V33     V     0.4444   0.8889   0.1124
V34     V     0.7778   0.2222   0.1124
V35     V     0.7778   0.5556   0.1124
V36     V     0.7778   0.8889   0.1124
loop_
_geom_bond_atom_site_label_1
_geom_bond_atom_site_label_2
_geom_bond_distance
_geom_bond_site_symmetry_2
_ccdc_geom_bond_type
V1     V19    10.0   .     S
V1     V9    10.0   1_445     S
V1     V5    10.0   .     S
V1     V7    10.0   1_455     S
V1     V4    10.0   .     S
V1     V2    10.0   .     S
V1     V3    10.0   1_545     S
V1     V13    10.0   .     S
V1     V10    10.0   .     S
V1     V12    10.0   1_545     S
V2     V20    10.0   .     S
V2     V7    10.0   1_455     S
V2     V6    10.0   .     S
V2     V8    10.0   1_455     S
V2     V5    10.0   .     S
V2     V3    10.0   .     S
V2     V14    10.0   .     S
V2     V11    10.0   .     S
V2     V10    10.0   .     S
V3     V21    10.0   .     S
V3     V8    10.0   1_455     S
V3     V4    10.0   1_565     S
V3     V9    10.0   1_455     S
V3     V6    10.0   .     S
V3     V1    10.0   1_565     S
V3     V15    10.0   .     S
V3     V12    10.0   .     S
V3     V11    10.0   .     S
V4     V22    10.0   .     S
V4     V3    10.0   1_545     S
V4     V8    10.0   .     S
V4     V7    10.0   .     S
V4     V5    10.0   .     S
V4     V6    10.0   1_545     S
V4     V16    10.0   .     S
V4     V13    10.0   .     S
V4     V15    10.0   1_545     S
V5     V23    10.0   .     S
V5     V9    10.0   .     S
V5     V8    10.0   .     S
V5     V6    10.0   .     S
V5     V17    10.0   .     S
V5     V14    10.0   .     S
V5     V13    10.0   .     S
V6     V24    10.0   .     S
V6     V7    10.0   1_565     S
V6     V9    10.0   .     S
V6     V4    10.0   1_565     S
V6     V18    10.0   .     S
V6     V15    10.0   .     S
V6     V14    10.0   .     S
V7     V25    10.0   .     S
V7     V2    10.0   1_655     S
V7     V6    10.0   1_545     S
V7     V1    10.0   1_655     S
V7     V8    10.0   .     S
V7     V9    10.0   1_545     S
V7     V10    10.0   1_655     S
V7     V16    10.0   .     S
V7     V18    10.0   1_545     S
V8     V26    10.0   .     S
V8     V3    10.0   1_655     S
V8     V2    10.0   1_655     S
V8     V9    10.0   .     S
V8     V11    10.0   1_655     S
V8     V17    10.0   .     S
V8     V16    10.0   .     S
V9     V27    10.0   .     S
V9     V1    10.0   1_665     S
V9     V3    10.0   1_655     S
V9     V7    10.0   1_565     S
V9     V12    10.0   1_655     S
V9     V18    10.0   .     S
V9     V17    10.0   .     S
V10     V12    10.0   1_545     S
V10     V11    10.0   .     S
V10     V14    10.0   .     S
V10     V18    10.0   1_445     S
V10     V13    10.0   .     S
V10     V16    10.0   1_455     S
V10     V7    10.0   1_455     S
V10     V28    10.0   .     S
V11     V12    10.0   .     S
V11     V15    10.0   .     S
V11     V16    10.0   1_455     S
V11     V14    10.0   .     S
V11     V17    10.0   1_455     S
V11     V8    10.0   1_455     S
V11     V29    10.0   .     S
V12     V10    10.0   1_565     S
V12     V13    10.0   1_565     S
V12     V17    10.0   1_455     S
V12     V15    10.0   .     S
V12     V18    10.0   1_455     S
V12     V9    10.0   1_455     S
V12     V1    10.0   1_565     S
V12     V30    10.0   .     S
V13     V15    10.0   1_545     S
V13     V14    10.0   .     S
V13     V12    10.0   1_545     S
V13     V17    10.0   .     S
V13     V16    10.0   .     S
V13     V31    10.0   .     S
V14     V15    10.0   .     S
V14     V18    10.0   .     S
V14     V17    10.0   .     S
V14     V32    10.0   .     S
V15     V13    10.0   1_565     S
V15     V16    10.0   1_565     S
V15     V18    10.0   .     S
V15     V4    10.0   1_565     S
V15     V33    10.0   .     S
V16     V18    10.0   1_545     S
V16     V17    10.0   .     S
V16     V15    10.0   1_545     S
V16     V11    10.0   1_655     S
V16     V10    10.0   1_655     S
V16     V34    10.0   .     S
V17     V18    10.0   .     S
V17     V12    10.0   1_655     S
V17     V11    10.0   1_655     S
V17     V35    10.0   .     S
V18     V16    10.0   1_565     S
V18     V10    10.0   1_665     S
V18     V12    10.0   1_655     S
V18     V7    10.0   1_565     S
V18     V36    10.0   .     S
V19     V25    10.0   1_455     S
V19     V22    10.0   .     S
V19     V27    10.0   1_445     S
V19     V23    10.0   .     S
V19     V20    10.0   .     S
V19     V21    10.0   1_545     S
V19     V28    10.0   1_556     S
V19     V30    10.0   1_546     S
V19     V31    10.0   1_556     S
V20     V26    10.0   1_455     S
V20     V23    10.0   .     S
V20     V25    10.0   1_455     S
V20     V24    10.0   .     S
V20     V21    10.0   .     S
V20     V29    10.0   1_556     S
V20     V28    10.0   1_556     S
V20     V32    10.0   1_556     S
V21     V27    10.0   1_455     S
V21     V24    10.0   .     S
V21     V26    10.0   1_455     S
V21     V22    10.0   1_565     S
V21     V19    10.0   1_565     S
V21     V30    10.0   1_556     S
V21     V29    10.0   1_556     S
V21     V33    10.0   1_556     S
V22     V25    10.0   .     S
V22     V21    10.0   1_545     S
V22     V26    10.0   .     S
V22     V23    10.0   .     S
V22     V24    10.0   1_545     S
V22     V31    10.0   1_556     S
V22     V33    10.0   1_546     S
V22     V34    10.0   1_556     S
V23     V26    10.0   .     S
V23     V27    10.0   .     S
V23     V24    10.0   .     S
V23     V32    10.0   1_556     S
V23     V31    10.0   1_556     S
V23     V35    10.0   1_556     S
V24     V27    10.0   .     S
V24     V25    10.0   1_565     S
V24     V22    10.0   1_565     S
V24     V33    10.0   1_556     S
V24     V32    10.0   1_556     S
V24     V36    10.0   1_556     S
V25     V19    10.0   1_655     S
V25     V20    10.0   1_655     S
V25     V24    10.0   1_545     S
V25     V26    10.0   .     S
V25     V27    10.0   1_545     S
V25     V34    10.0   1_556     S
V25     V36    10.0   1_546     S
V25     V28    10.0   1_656     S
V26     V20    10.0   1_655     S
V26     V21    10.0   1_655     S
V26     V27    10.0   .     S
V26     V35    10.0   1_556     S
V26     V34    10.0   1_556     S
V26     V29    10.0   1_656     S
V27     V21    10.0   1_655     S
V27     V19    10.0   1_665     S
V27     V25    10.0   1_565     S
V27     V36    10.0   1_556     S
V27     V35    10.0   1_556     S
V27     V30    10.0   1_656     S
V28     V32    10.0   .     S
V28     V36    10.0   1_445     S
V28     V30    10.0   1_545     S
V28     V29    10.0   .     S
V28     V31    10.0   .     S
V28     V34    10.0   1_455     S
V28     V19    10.0   1_554     S
V28     V20    10.0   1_554     S
V28     V25    10.0   1_454     S
V29     V33    10.0   .     S
V29     V34    10.0   1_455     S
V29     V30    10.0   .     S
V29     V32    10.0   .     S
V29     V35    10.0   1_455     S
V29     V20    10.0   1_554     S
V29     V21    10.0   1_554     S
V29     V26    10.0   1_454     S
V30     V31    10.0   1_565     S
V30     V35    10.0   1_455     S
V30     V28    10.0   1_565     S
V30     V33    10.0   .     S
V30     V36    10.0   1_455     S
V30     V21    10.0   1_554     S
V30     V19    10.0   1_564     S
V30     V27    10.0   1_454     S
V31     V30    10.0   1_545     S
V31     V35    10.0   .     S
V31     V33    10.0   1_545     S
V31     V32    10.0   .     S
V31     V34    10.0   .     S
V31     V22    10.0   1_554     S
V31     V23    10.0   1_554     S
V31     V19    10.0   1_554     S
V32     V36    10.0   .     S
V32     V33    10.0   .     S
V32     V35    10.0   .     S
V32     V23    10.0   1_554     S
V32     V24    10.0   1_554     S
V32     V20    10.0   1_554     S
V33     V34    10.0   1_565     S
V33     V31    10.0   1_565     S
V33     V36    10.0   .     S
V33     V24    10.0   1_554     S
V33     V22    10.0   1_564     S
V33     V21    10.0   1_554     S
V34     V33    10.0   1_545     S
V34     V29    10.0   1_655     S
V34     V36    10.0   1_545     S
V34     V35    10.0   .     S
V34     V28    10.0   1_655     S
V34     V25    10.0   1_554     S
V34     V26    10.0   1_554     S
V34     V22    10.0   1_554     S
V35     V30    10.0   1_655     S
V35     V36    10.0   .     S
V35     V29    10.0   1_655     S
V35     V26    10.0   1_554     S
V35     V27    10.0   1_554     S
V35     V23    10.0   1_554     S
V36     V28    10.0   1_665     S
V36     V34    10.0   1_565     S
V36     V30    10.0   1_655     S
V36     V27    10.0   1_554     S
V36     V25    10.0   1_564     S
V36     V24    10.0   1_554     S
