data_tcc-x
_audit_creation_date              2019-12-31
_audit_creation_method            'Pymatgen'
_symmetry_space_group_name_H-M    'P1'
_symmetry_Int_Tables_number       1
loop_
_symmetry_equiv_pos_as_xyz
  x,y,z
_cell_length_a                    29.4216
_cell_length_b                    29.4216
_cell_length_c                    44.991
_cell_angle_alpha                 90.0
_cell_angle_beta                 90.0
_cell_angle_gamma                 120.0
loop_
_atom_site_label
_atom_site_type_symbol
_atom_site_fract_x
_atom_site_fract_y
_atom_site_fract_z
V1     V     0.0   0.1667   0.0833
V2     V     0.0   0.1667   0.5833
V3     V     0.0   0.5   0.0833
V4     V     0.0   0.5   0.5833
V5     V     0.0   0.8333   0.0833
V6     V     0.0   0.8333   0.5833
V7     V     0.3333   0.1667   0.0833
V8     V     0.3333   0.1667   0.5833
V9     V     0.3333   0.5   0.0833
V10     V     0.3333   0.5   0.5833
V11     V     0.3333   0.8333   0.0833
V12     V     0.3333   0.8333   0.5833
V13     V     0.6667   0.1667   0.0833
V14     V     0.6667   0.1667   0.5833
V15     V     0.6667   0.5   0.0833
V16     V     0.6667   0.5   0.5833
V17     V     0.6667   0.8333   0.0833
V18     V     0.6667   0.8333   0.5833
V19     V     0.1667   0.1667   0.4167
V20     V     0.1667   0.1667   0.9167
V21     V     0.1667   0.5   0.4167
V22     V     0.1667   0.5   0.9167
V23     V     0.1667   0.8333   0.4167
V24     V     0.1667   0.8333   0.9167
V25     V     0.5   0.1667   0.4167
V26     V     0.5   0.1667   0.9167
V27     V     0.5   0.5   0.4167
V28     V     0.5   0.5   0.9167
V29     V     0.5   0.8333   0.4167
V30     V     0.5   0.8333   0.9167
V31     V     0.8333   0.1667   0.4167
V32     V     0.8333   0.1667   0.9167
V33     V     0.8333   0.5   0.4167
V34     V     0.8333   0.5   0.9167
V35     V     0.8333   0.8333   0.4167
V36     V     0.8333   0.8333   0.9167
V37     V     0.1667   0.0   0.25
V38     V     0.1667   0.0   0.75
V39     V     0.1667   0.3333   0.25
V40     V     0.1667   0.3333   0.75
V41     V     0.1667   0.6667   0.25
V42     V     0.1667   0.6667   0.75
V43     V     0.5   0.0   0.25
V44     V     0.5   0.0   0.75
V45     V     0.5   0.3333   0.25
V46     V     0.5   0.3333   0.75
V47     V     0.5   0.6667   0.25
V48     V     0.5   0.6667   0.75
V49     V     0.8333   0.0   0.25
V50     V     0.8333   0.0   0.75
V51     V     0.8333   0.3333   0.25
V52     V     0.8333   0.3333   0.75
V53     V     0.8333   0.6667   0.25
V54     V     0.8333   0.6667   0.75
loop_
_geom_bond_atom_site_label_1
_geom_bond_atom_site_label_2
_geom_bond_distance
_geom_bond_site_symmetry_2
_ccdc_geom_bond_type
V1     V9    9.807   .     S
V1     V17    9.807   1_445     S
V1     V7    9.807   .     S
V1     V13    9.807   1_455     S
V1     V5    9.807   1_545     S
V1     V3    9.807   .     S
V1     V49    8.96   1_455     S
V1     V39    8.96   .     S
V1     V20    8.96   1_554     S
V1     V32    8.96   1_454     S
V1     V22    11.33   1_554     S
V1     V36    11.33   1_444     S
V1     V51    11.33   1_455     S
V1     V37    11.33   .     S
V2     V10    9.807   .     S
V2     V18    9.807   1_445     S
V2     V8    9.807   .     S
V2     V14    9.807   1_455     S
V2     V6    9.807   1_545     S
V2     V4    9.807   .     S
V2     V50    8.96   1_455     S
V2     V40    8.96   .     S
V2     V19    8.96   .     S
V2     V31    8.96   1_455     S
V2     V21    11.33   .     S
V2     V35    11.33   1_445     S
V2     V52    11.33   1_455     S
V2     V38    11.33   .     S
V3     V11    9.807   .     S
V3     V13    9.807   1_455     S
V3     V9    9.807   .     S
V3     V15    9.807   1_455     S
V3     V5    9.807   .     S
V3     V51    8.96   1_455     S
V3     V41    8.96   .     S
V3     V22    8.96   1_554     S
V3     V34    8.96   1_454     S
V3     V24    11.33   1_554     S
V3     V32    11.33   1_454     S
V3     V53    11.33   1_455     S
V3     V39    11.33   .     S
V4     V12    9.807   .     S
V4     V14    9.807   1_455     S
V4     V10    9.807   .     S
V4     V16    9.807   1_455     S
V4     V6    9.807   .     S
V4     V52    8.96   1_455     S
V4     V42    8.96   .     S
V4     V21    8.96   .     S
V4     V33    8.96   1_455     S
V4     V23    11.33   .     S
V4     V31    11.33   1_455     S
V4     V54    11.33   1_455     S
V4     V40    11.33   .     S
V5     V7    9.807   1_565     S
V5     V15    9.807   1_455     S
V5     V11    9.807   .     S
V5     V17    9.807   1_455     S
V5     V1    9.807   1_565     S
V5     V53    8.96   1_455     S
V5     V37    8.96   1_565     S
V5     V24    8.96   1_554     S
V5     V36    8.96   1_454     S
V5     V20    11.33   1_564     S
V5     V34    11.33   1_454     S
V5     V49    11.33   1_465     S
V5     V41    11.33   .     S
V6     V8    9.807   1_565     S
V6     V16    9.807   1_455     S
V6     V12    9.807   .     S
V6     V18    9.807   1_455     S
V6     V2    9.807   1_565     S
V6     V54    8.96   1_455     S
V6     V38    8.96   1_565     S
V6     V23    8.96   .     S
V6     V35    8.96   1_455     S
V6     V19    11.33   1_565     S
V6     V33    11.33   1_455     S
V6     V50    11.33   1_465     S
V6     V42    11.33   .     S
V7     V5    9.807   1_545     S
V7     V15    9.807   .     S
V7     V13    9.807   .     S
V7     V11    9.807   1_545     S
V7     V9    9.807   .     S
V7     V37    8.96   .     S
V7     V45    8.96   .     S
V7     V26    8.96   1_554     S
V7     V20    8.96   1_554     S
V7     V28    11.33   1_554     S
V7     V24    11.33   1_544     S
V7     V39    11.33   .     S
V7     V43    11.33   .     S
V8     V6    9.807   1_545     S
V8     V16    9.807   .     S
V8     V14    9.807   .     S
V8     V12    9.807   1_545     S
V8     V10    9.807   .     S
V8     V38    8.96   .     S
V8     V46    8.96   .     S
V8     V25    8.96   .     S
V8     V19    8.96   .     S
V8     V27    11.33   .     S
V8     V23    11.33   1_545     S
V8     V40    11.33   .     S
V8     V44    11.33   .     S
V9     V17    9.807   .     S
V9     V15    9.807   .     S
V9     V11    9.807   .     S
V9     V39    8.96   .     S
V9     V47    8.96   .     S
V9     V28    8.96   1_554     S
V9     V22    8.96   1_554     S
V9     V30    11.33   1_554     S
V9     V20    11.33   1_554     S
V9     V41    11.33   .     S
V9     V45    11.33   .     S
V10     V18    9.807   .     S
V10     V16    9.807   .     S
V10     V12    9.807   .     S
V10     V40    8.96   .     S
V10     V48    8.96   .     S
V10     V27    8.96   .     S
V10     V21    8.96   .     S
V10     V29    11.33   .     S
V10     V19    11.33   .     S
V10     V42    11.33   .     S
V10     V46    11.33   .     S
V11     V13    9.807   1_565     S
V11     V17    9.807   .     S
V11     V7    9.807   1_565     S
V11     V41    8.96   .     S
V11     V43    8.96   1_565     S
V11     V30    8.96   1_554     S
V11     V24    8.96   1_554     S
V11     V26    11.33   1_564     S
V11     V22    11.33   1_554     S
V11     V37    11.33   1_565     S
V11     V47    11.33   .     S
V12     V14    9.807   1_565     S
V12     V18    9.807   .     S
V12     V8    9.807   1_565     S
V12     V42    8.96   .     S
V12     V44    8.96   1_565     S
V12     V29    8.96   .     S
V12     V23    8.96   .     S
V12     V25    11.33   1_565     S
V12     V21    11.33   .     S
V12     V38    11.33   1_565     S
V12     V48    11.33   .     S
V13     V11    9.807   1_545     S
V13     V3    9.807   1_655     S
V13     V1    9.807   1_655     S
V13     V17    9.807   1_545     S
V13     V15    9.807   .     S
V13     V43    8.96   .     S
V13     V51    8.96   .     S
V13     V32    8.96   1_554     S
V13     V26    8.96   1_554     S
V13     V34    11.33   1_554     S
V13     V30    11.33   1_544     S
V13     V45    11.33   .     S
V13     V49    11.33   .     S
V14     V12    9.807   1_545     S
V14     V4    9.807   1_655     S
V14     V2    9.807   1_655     S
V14     V18    9.807   1_545     S
V14     V16    9.807   .     S
V14     V44    8.96   .     S
V14     V52    8.96   .     S
V14     V31    8.96   .     S
V14     V25    8.96   .     S
V14     V33    11.33   .     S
V14     V29    11.33   1_545     S
V14     V46    11.33   .     S
V14     V50    11.33   .     S
V15     V5    9.807   1_655     S
V15     V3    9.807   1_655     S
V15     V17    9.807   .     S
V15     V45    8.96   .     S
V15     V53    8.96   .     S
V15     V34    8.96   1_554     S
V15     V28    8.96   1_554     S
V15     V36    11.33   1_554     S
V15     V26    11.33   1_554     S
V15     V47    11.33   .     S
V15     V51    11.33   .     S
V16     V6    9.807   1_655     S
V16     V4    9.807   1_655     S
V16     V18    9.807   .     S
V16     V46    8.96   .     S
V16     V54    8.96   .     S
V16     V33    8.96   .     S
V16     V27    8.96   .     S
V16     V35    11.33   .     S
V16     V25    11.33   .     S
V16     V48    11.33   .     S
V16     V52    11.33   .     S
V17     V1    9.807   1_665     S
V17     V5    9.807   1_655     S
V17     V13    9.807   1_565     S
V17     V47    8.96   .     S
V17     V49    8.96   1_565     S
V17     V36    8.96   1_554     S
V17     V30    8.96   1_554     S
V17     V32    11.33   1_564     S
V17     V28    11.33   1_554     S
V17     V43    11.33   1_565     S
V17     V53    11.33   .     S
V18     V2    9.807   1_665     S
V18     V6    9.807   1_655     S
V18     V14    9.807   1_565     S
V18     V48    8.96   .     S
V18     V50    8.96   1_565     S
V18     V35    8.96   .     S
V18     V29    8.96   .     S
V18     V31    11.33   1_565     S
V18     V27    11.33   .     S
V18     V44    11.33   1_565     S
V18     V54    11.33   .     S
V19     V31    9.807   1_455     S
V19     V25    9.807   .     S
V19     V23    9.807   1_545     S
V19     V21    9.807   .     S
V19     V35    9.807   1_445     S
V19     V27    9.807   .     S
V19     V39    8.96   .     S
V19     V37    8.96   .     S
V19     V49    11.33   1_455     S
V19     V45    11.33   .     S
V19     V6    11.33   1_545     S
V20     V32    9.807   1_455     S
V20     V26    9.807   .     S
V20     V24    9.807   1_545     S
V20     V22    9.807   .     S
V20     V36    9.807   1_445     S
V20     V28    9.807   .     S
V20     V1    8.96   1_556     S
V20     V7    8.96   1_556     S
V20     V40    8.96   .     S
V20     V38    8.96   .     S
V20     V50    11.33   1_455     S
V20     V46    11.33   .     S
V20     V5    11.33   1_546     S
V20     V9    11.33   1_556     S
V21     V33    9.807   1_455     S
V21     V27    9.807   .     S
V21     V23    9.807   .     S
V21     V31    9.807   1_455     S
V21     V29    9.807   .     S
V21     V41    8.96   .     S
V21     V39    8.96   .     S
V21     V51    11.33   1_455     S
V21     V47    11.33   .     S
V22     V34    9.807   1_455     S
V22     V28    9.807   .     S
V22     V24    9.807   .     S
V22     V32    9.807   1_455     S
V22     V30    9.807   .     S
V22     V3    8.96   1_556     S
V22     V9    8.96   1_556     S
V22     V42    8.96   .     S
V22     V40    8.96   .     S
V22     V52    11.33   1_455     S
V22     V48    11.33   .     S
V22     V1    11.33   1_556     S
V22     V11    11.33   1_556     S
V23     V35    9.807   1_455     S
V23     V29    9.807   .     S
V23     V19    9.807   1_565     S
V23     V33    9.807   1_455     S
V23     V25    9.807   1_565     S
V23     V37    8.96   1_565     S
V23     V41    8.96   .     S
V23     V53    11.33   1_455     S
V23     V43    11.33   1_565     S
V23     V8    11.33   1_565     S
V24     V36    9.807   1_455     S
V24     V30    9.807   .     S
V24     V20    9.807   1_565     S
V24     V34    9.807   1_455     S
V24     V26    9.807   1_565     S
V24     V5    8.96   1_556     S
V24     V11    8.96   1_556     S
V24     V38    8.96   1_565     S
V24     V42    8.96   .     S
V24     V54    11.33   1_455     S
V24     V44    11.33   1_565     S
V24     V3    11.33   1_556     S
V24     V7    11.33   1_566     S
V25     V31    9.807   .     S
V25     V29    9.807   1_545     S
V25     V27    9.807   .     S
V25     V23    9.807   1_545     S
V25     V33    9.807   .     S
V25     V45    8.96   .     S
V25     V43    8.96   .     S
V25     V37    11.33   .     S
V25     V51    11.33   .     S
V25     V12    11.33   1_545     S
V26     V32    9.807   .     S
V26     V30    9.807   1_545     S
V26     V28    9.807   .     S
V26     V24    9.807   1_545     S
V26     V34    9.807   .     S
V26     V7    8.96   1_556     S
V26     V13    8.96   1_556     S
V26     V46    8.96   .     S
V26     V44    8.96   .     S
V26     V38    11.33   .     S
V26     V52    11.33   .     S
V26     V11    11.33   1_546     S
V26     V15    11.33   1_556     S
V27     V33    9.807   .     S
V27     V29    9.807   .     S
V27     V35    9.807   .     S
V27     V47    8.96   .     S
V27     V45    8.96   .     S
V27     V39    11.33   .     S
V27     V53    11.33   .     S
V28     V34    9.807   .     S
V28     V30    9.807   .     S
V28     V36    9.807   .     S
V28     V9    8.96   1_556     S
V28     V15    8.96   1_556     S
V28     V48    8.96   .     S
V28     V46    8.96   .     S
V28     V40    11.33   .     S
V28     V54    11.33   .     S
V28     V7    11.33   1_556     S
V28     V17    11.33   1_556     S
V29     V35    9.807   .     S
V29     V25    9.807   1_565     S
V29     V31    9.807   1_565     S
V29     V43    8.96   1_565     S
V29     V47    8.96   .     S
V29     V41    11.33   .     S
V29     V49    11.33   1_565     S
V29     V14    11.33   1_565     S
V30     V36    9.807   .     S
V30     V26    9.807   1_565     S
V30     V32    9.807   1_565     S
V30     V11    8.96   1_556     S
V30     V17    8.96   1_556     S
V30     V44    8.96   1_565     S
V30     V48    8.96   .     S
V30     V42    11.33   .     S
V30     V50    11.33   1_565     S
V30     V9    11.33   1_556     S
V30     V13    11.33   1_566     S
V31     V19    9.807   1_655     S
V31     V35    9.807   1_545     S
V31     V33    9.807   .     S
V31     V21    9.807   1_655     S
V31     V29    9.807   1_545     S
V31     V2    8.96   1_655     S
V31     V51    8.96   .     S
V31     V49    8.96   .     S
V31     V43    11.33   .     S
V31     V39    11.33   1_655     S
V31     V18    11.33   1_545     S
V31     V4    11.33   1_655     S
V32     V20    9.807   1_655     S
V32     V36    9.807   1_545     S
V32     V34    9.807   .     S
V32     V22    9.807   1_655     S
V32     V30    9.807   1_545     S
V32     V13    8.96   1_556     S
V32     V1    8.96   1_656     S
V32     V52    8.96   .     S
V32     V50    8.96   .     S
V32     V44    11.33   .     S
V32     V40    11.33   1_655     S
V32     V17    11.33   1_546     S
V32     V3    11.33   1_656     S
V33     V21    9.807   1_655     S
V33     V35    9.807   .     S
V33     V23    9.807   1_655     S
V33     V4    8.96   1_655     S
V33     V53    8.96   .     S
V33     V51    8.96   .     S
V33     V45    11.33   .     S
V33     V41    11.33   1_655     S
V33     V6    11.33   1_655     S
V34     V22    9.807   1_655     S
V34     V36    9.807   .     S
V34     V24    9.807   1_655     S
V34     V15    8.96   1_556     S
V34     V3    8.96   1_656     S
V34     V54    8.96   .     S
V34     V52    8.96   .     S
V34     V46    11.33   .     S
V34     V42    11.33   1_655     S
V34     V13    11.33   1_556     S
V34     V5    11.33   1_656     S
V35     V23    9.807   1_655     S
V35     V31    9.807   1_565     S
V35     V19    9.807   1_665     S
V35     V6    8.96   1_655     S
V35     V49    8.96   1_565     S
V35     V53    8.96   .     S
V35     V47    11.33   .     S
V35     V37    11.33   1_665     S
V35     V2    11.33   1_665     S
V36     V24    9.807   1_655     S
V36     V32    9.807   1_565     S
V36     V20    9.807   1_665     S
V36     V17    8.96   1_556     S
V36     V5    8.96   1_656     S
V36     V50    8.96   1_565     S
V36     V54    8.96   .     S
V36     V48    11.33   .     S
V36     V38    11.33   1_665     S
V36     V15    11.33   1_556     S
V36     V1    11.33   1_666     S
V37     V53    9.807   1_445     S
V37     V45    9.807   .     S
V37     V49    9.807   1_455     S
V37     V43    9.807   .     S
V37     V39    9.807   .     S
V37     V41    9.807   1_545     S
V37     V5    8.96   1_545     S
V37     V23    8.96   1_545     S
V37     V35    11.33   1_445     S
V37     V11    11.33   1_545     S
V38     V54    9.807   1_445     S
V38     V46    9.807   .     S
V38     V50    9.807   1_455     S
V38     V44    9.807   .     S
V38     V40    9.807   .     S
V38     V42    9.807   1_545     S
V38     V6    8.96   1_545     S
V38     V24    8.96   1_545     S
V38     V36    11.33   1_445     S
V38     V12    11.33   1_545     S
V39     V49    9.807   1_455     S
V39     V47    9.807   .     S
V39     V51    9.807   1_455     S
V39     V45    9.807   .     S
V39     V41    9.807   .     S
V39     V31    11.33   1_455     S
V40     V50    9.807   1_455     S
V40     V48    9.807   .     S
V40     V52    9.807   1_455     S
V40     V46    9.807   .     S
V40     V42    9.807   .     S
V40     V32    11.33   1_455     S
V41     V51    9.807   1_455     S
V41     V43    9.807   1_565     S
V41     V53    9.807   1_455     S
V41     V47    9.807   .     S
V41     V37    9.807   1_565     S
V41     V33    11.33   1_455     S
V42     V52    9.807   1_455     S
V42     V44    9.807   1_565     S
V42     V54    9.807   1_455     S
V42     V48    9.807   .     S
V42     V38    9.807   1_565     S
V42     V34    11.33   1_455     S
V43     V41    9.807   1_545     S
V43     V51    9.807   .     S
V43     V49    9.807   .     S
V43     V45    9.807   .     S
V43     V47    9.807   1_545     S
V43     V11    8.96   1_545     S
V43     V29    8.96   1_545     S
V43     V23    11.33   1_545     S
V43     V17    11.33   1_545     S
V44     V42    9.807   1_545     S
V44     V52    9.807   .     S
V44     V50    9.807   .     S
V44     V46    9.807   .     S
V44     V48    9.807   1_545     S
V44     V12    8.96   1_545     S
V44     V30    8.96   1_545     S
V44     V24    11.33   1_545     S
V44     V18    11.33   1_545     S
V45     V53    9.807   .     S
V45     V51    9.807   .     S
V45     V47    9.807   .     S
V46     V54    9.807   .     S
V46     V52    9.807   .     S
V46     V48    9.807   .     S
V47     V49    9.807   1_565     S
V47     V53    9.807   .     S
V47     V43    9.807   1_565     S
V48     V50    9.807   1_565     S
V48     V54    9.807   .     S
V48     V44    9.807   1_565     S
V49     V39    9.807   1_655     S
V49     V47    9.807   1_545     S
V49     V37    9.807   1_655     S
V49     V51    9.807   .     S
V49     V53    9.807   1_545     S
V49     V1    8.96   1_655     S
V49     V17    8.96   1_545     S
V49     V35    8.96   1_545     S
V49     V19    11.33   1_655     S
V49     V29    11.33   1_545     S
V49     V5    11.33   1_645     S
V50     V40    9.807   1_655     S
V50     V48    9.807   1_545     S
V50     V38    9.807   1_655     S
V50     V52    9.807   .     S
V50     V54    9.807   1_545     S
V50     V2    8.96   1_655     S
V50     V18    8.96   1_545     S
V50     V36    8.96   1_545     S
V50     V20    11.33   1_655     S
V50     V30    11.33   1_545     S
V50     V6    11.33   1_645     S
V51     V41    9.807   1_655     S
V51     V39    9.807   1_655     S
V51     V53    9.807   .     S
V51     V3    8.96   1_655     S
V51     V21    11.33   1_655     S
V51     V1    11.33   1_655     S
V52     V42    9.807   1_655     S
V52     V40    9.807   1_655     S
V52     V54    9.807   .     S
V52     V4    8.96   1_655     S
V52     V22    11.33   1_655     S
V52     V2    11.33   1_655     S
V53     V37    9.807   1_665     S
V53     V41    9.807   1_655     S
V53     V49    9.807   1_565     S
V53     V5    8.96   1_655     S
V53     V23    11.33   1_655     S
V53     V3    11.33   1_655     S
V54     V38    9.807   1_665     S
V54     V42    9.807   1_655     S
V54     V50    9.807   1_565     S
V54     V6    8.96   1_655     S
V54     V24    11.33   1_655     S
V54     V4    11.33   1_655     S
