data_tcf
_audit_creation_date              2019-12-31
_audit_creation_method            'Pymatgen'
_symmetry_space_group_name_H-M    'P1'
_symmetry_Int_Tables_number       1
loop_
_symmetry_equiv_pos_as_xyz
  x,y,z
_cell_length_a                    30.0
_cell_length_b                    34.6412
_cell_length_c                    69.2817
_cell_angle_alpha                 90.0
_cell_angle_beta                 90.0
_cell_angle_gamma                 90.0
loop_
_atom_site_label
_atom_site_type_symbol
_atom_site_fract_x
_atom_site_fract_y
_atom_site_fract_z
V1     V     0.0417   0.3125   0.4375
V2     V     0.0417   0.8125   0.4375
V3     V     0.375   0.3125   0.4375
V4     V     0.375   0.8125   0.4375
V5     V     0.7083   0.3125   0.4375
V6     V     0.7083   0.8125   0.4375
V7     V     0.2083   0.3125   0.3125
V8     V     0.2083   0.8125   0.3125
V9     V     0.5417   0.3125   0.3125
V10     V     0.5417   0.8125   0.3125
V11     V     0.875   0.3125   0.3125
V12     V     0.875   0.8125   0.3125
V13     V     0.125   0.1875   0.6875
V14     V     0.125   0.6875   0.6875
V15     V     0.4583   0.1875   0.6875
V16     V     0.4583   0.6875   0.6875
V17     V     0.7917   0.1875   0.6875
V18     V     0.7917   0.6875   0.6875
V19     V     0.2917   0.1875   0.5625
V20     V     0.2917   0.6875   0.5625
V21     V     0.625   0.1875   0.5625
V22     V     0.625   0.6875   0.5625
V23     V     0.9583   0.1875   0.5625
V24     V     0.9583   0.6875   0.5625
V25     V     0.0417   0.3125   0.8125
V26     V     0.0417   0.8125   0.8125
V27     V     0.375   0.3125   0.8125
V28     V     0.375   0.8125   0.8125
V29     V     0.7083   0.3125   0.8125
V30     V     0.7083   0.8125   0.8125
V31     V     0.2083   0.3125   0.9375
V32     V     0.2083   0.8125   0.9375
V33     V     0.5417   0.3125   0.9375
V34     V     0.5417   0.8125   0.9375
V35     V     0.875   0.3125   0.9375
V36     V     0.875   0.8125   0.9375
V37     V     0.2917   0.4375   0.6875
V38     V     0.2917   0.9375   0.6875
V39     V     0.625   0.4375   0.6875
V40     V     0.625   0.9375   0.6875
V41     V     0.9583   0.4375   0.6875
V42     V     0.9583   0.9375   0.6875
V43     V     0.125   0.4375   0.5625
V44     V     0.125   0.9375   0.5625
V45     V     0.4583   0.4375   0.5625
V46     V     0.4583   0.9375   0.5625
V47     V     0.7917   0.4375   0.5625
V48     V     0.7917   0.9375   0.5625
V49     V     0.0417   0.0625   0.9375
V50     V     0.0417   0.5625   0.9375
V51     V     0.375   0.0625   0.9375
V52     V     0.375   0.5625   0.9375
V53     V     0.7083   0.0625   0.9375
V54     V     0.7083   0.5625   0.9375
V55     V     0.2083   0.0625   0.8125
V56     V     0.2083   0.5625   0.8125
V57     V     0.5417   0.0625   0.8125
V58     V     0.5417   0.5625   0.8125
V59     V     0.875   0.0625   0.8125
V60     V     0.875   0.5625   0.8125
V61     V     0.2917   0.1875   0.1875
V62     V     0.2917   0.6875   0.1875
V63     V     0.625   0.1875   0.1875
V64     V     0.625   0.6875   0.1875
V65     V     0.9583   0.1875   0.1875
V66     V     0.9583   0.6875   0.1875
V67     V     0.125   0.1875   0.0625
V68     V     0.125   0.6875   0.0625
V69     V     0.4583   0.1875   0.0625
V70     V     0.4583   0.6875   0.0625
V71     V     0.7917   0.1875   0.0625
V72     V     0.7917   0.6875   0.0625
V73     V     0.125   0.4375   0.1875
V74     V     0.125   0.9375   0.1875
V75     V     0.4583   0.4375   0.1875
V76     V     0.4583   0.9375   0.1875
V77     V     0.7917   0.4375   0.1875
V78     V     0.7917   0.9375   0.1875
V79     V     0.2917   0.4375   0.0625
V80     V     0.2917   0.9375   0.0625
V81     V     0.625   0.4375   0.0625
V82     V     0.625   0.9375   0.0625
V83     V     0.9583   0.4375   0.0625
V84     V     0.9583   0.9375   0.0625
V85     V     0.0417   0.0625   0.3125
V86     V     0.0417   0.5625   0.3125
V87     V     0.375   0.0625   0.3125
V88     V     0.375   0.5625   0.3125
V89     V     0.7083   0.0625   0.3125
V90     V     0.7083   0.5625   0.3125
V91     V     0.2083   0.0625   0.4375
V92     V     0.2083   0.5625   0.4375
V93     V     0.5417   0.0625   0.4375
V94     V     0.5417   0.5625   0.4375
V95     V     0.875   0.0625   0.4375
V96     V     0.875   0.5625   0.4375
loop_
_geom_bond_atom_site_label_1
_geom_bond_atom_site_label_2
_geom_bond_distance
_geom_bond_site_symmetry_2
_ccdc_geom_bond_type
V1     V7    10.0   .     S
V1     V11    10.0   1_455     S
V1     V3    10.0   .     S
V1     V5    10.0   1_455     S
V1     V43    10.0   .     S
V1     V92    10.0   .     S
V1     V23    10.0   1_455     S
V1     V95    10.0   1_455     S
V1     V91    10.0   .     S
V1     V96    10.0   1_455     S
V2     V8    10.0   .     S
V2     V12    10.0   1_455     S
V2     V4    10.0   .     S
V2     V6    10.0   1_455     S
V2     V44    10.0   .     S
V2     V91    10.0   1_565     S
V2     V24    10.0   1_455     S
V2     V96    10.0   1_455     S
V2     V92    10.0   .     S
V2     V95    10.0   1_465     S
V3     V9    10.0   .     S
V3     V7    10.0   .     S
V3     V5    10.0   .     S
V3     V45    10.0   .     S
V3     V94    10.0   .     S
V3     V19    10.0   .     S
V3     V91    10.0   .     S
V3     V93    10.0   .     S
V3     V92    10.0   .     S
V4     V10    10.0   .     S
V4     V8    10.0   .     S
V4     V6    10.0   .     S
V4     V46    10.0   .     S
V4     V93    10.0   1_565     S
V4     V20    10.0   .     S
V4     V92    10.0   .     S
V4     V94    10.0   .     S
V4     V91    10.0   1_565     S
V5     V11    10.0   .     S
V5     V9    10.0   .     S
V5     V1    10.0   1_655     S
V5     V47    10.0   .     S
V5     V96    10.0   .     S
V5     V21    10.0   .     S
V5     V93    10.0   .     S
V5     V95    10.0   .     S
V5     V94    10.0   .     S
V6     V12    10.0   .     S
V6     V10    10.0   .     S
V6     V2    10.0   1_655     S
V6     V48    10.0   .     S
V6     V95    10.0   1_565     S
V6     V22    10.0   .     S
V6     V94    10.0   .     S
V6     V96    10.0   .     S
V6     V93    10.0   1_565     S
V7     V11    10.0   1_455     S
V7     V9    10.0   .     S
V7     V86    10.0   .     S
V7     V87    10.0   .     S
V7     V61    10.0   .     S
V7     V73    10.0   .     S
V7     V85    10.0   .     S
V7     V88    10.0   .     S
V8     V12    10.0   1_455     S
V8     V10    10.0   .     S
V8     V85    10.0   1_565     S
V8     V88    10.0   .     S
V8     V62    10.0   .     S
V8     V74    10.0   .     S
V8     V86    10.0   .     S
V8     V87    10.0   1_565     S
V9     V11    10.0   .     S
V9     V88    10.0   .     S
V9     V89    10.0   .     S
V9     V63    10.0   .     S
V9     V75    10.0   .     S
V9     V87    10.0   .     S
V9     V90    10.0   .     S
V10     V12    10.0   .     S
V10     V87    10.0   1_565     S
V10     V90    10.0   .     S
V10     V64    10.0   .     S
V10     V76    10.0   .     S
V10     V88    10.0   .     S
V10     V89    10.0   1_565     S
V11     V1    10.0   1_655     S
V11     V7    10.0   1_655     S
V11     V90    10.0   .     S
V11     V85    10.0   1_655     S
V11     V65    10.0   .     S
V11     V77    10.0   .     S
V11     V89    10.0   .     S
V11     V86    10.0   1_655     S
V12     V2    10.0   1_655     S
V12     V8    10.0   1_655     S
V12     V89    10.0   1_565     S
V12     V86    10.0   1_655     S
V12     V66    10.0   .     S
V12     V78    10.0   .     S
V12     V90    10.0   .     S
V12     V85    10.0   1_665     S
V13     V19    10.0   .     S
V13     V23    10.0   1_455     S
V13     V15    10.0   .     S
V13     V17    10.0   1_455     S
V13     V38    10.0   1_545     S
V13     V41    10.0   1_455     S
V13     V25    10.0   .     S
V13     V55    10.0   .     S
V13     V37    10.0   .     S
V13     V42    10.0   1_445     S
V14     V20    10.0   .     S
V14     V24    10.0   1_455     S
V14     V16    10.0   .     S
V14     V18    10.0   1_455     S
V14     V37    10.0   .     S
V14     V42    10.0   1_455     S
V14     V26    10.0   .     S
V14     V56    10.0   .     S
V14     V38    10.0   .     S
V14     V41    10.0   1_455     S
V15     V21    10.0   .     S
V15     V19    10.0   .     S
V15     V17    10.0   .     S
V15     V40    10.0   1_545     S
V15     V37    10.0   .     S
V15     V27    10.0   .     S
V15     V57    10.0   .     S
V15     V39    10.0   .     S
V15     V38    10.0   1_545     S
V16     V22    10.0   .     S
V16     V20    10.0   .     S
V16     V18    10.0   .     S
V16     V39    10.0   .     S
V16     V38    10.0   .     S
V16     V28    10.0   .     S
V16     V58    10.0   .     S
V16     V40    10.0   .     S
V16     V37    10.0   .     S
V17     V23    10.0   .     S
V17     V21    10.0   .     S
V17     V13    10.0   1_655     S
V17     V42    10.0   1_545     S
V17     V39    10.0   .     S
V17     V29    10.0   .     S
V17     V59    10.0   .     S
V17     V41    10.0   .     S
V17     V40    10.0   1_545     S
V18     V24    10.0   .     S
V18     V22    10.0   .     S
V18     V14    10.0   1_655     S
V18     V41    10.0   .     S
V18     V40    10.0   .     S
V18     V30    10.0   .     S
V18     V60    10.0   .     S
V18     V42    10.0   .     S
V18     V39    10.0   .     S
V19     V23    10.0   1_455     S
V19     V21    10.0   .     S
V19     V45    10.0   .     S
V19     V91    10.0   .     S
V19     V44    10.0   1_545     S
V19     V43    10.0   .     S
V19     V46    10.0   1_545     S
V20     V24    10.0   1_455     S
V20     V22    10.0   .     S
V20     V46    10.0   .     S
V20     V92    10.0   .     S
V20     V43    10.0   .     S
V20     V44    10.0   .     S
V20     V45    10.0   .     S
V21     V23    10.0   .     S
V21     V47    10.0   .     S
V21     V93    10.0   .     S
V21     V46    10.0   1_545     S
V21     V45    10.0   .     S
V21     V48    10.0   1_545     S
V22     V24    10.0   .     S
V22     V48    10.0   .     S
V22     V94    10.0   .     S
V22     V45    10.0   .     S
V22     V46    10.0   .     S
V22     V47    10.0   .     S
V23     V13    10.0   1_655     S
V23     V19    10.0   1_655     S
V23     V43    10.0   1_655     S
V23     V1    10.0   1_655     S
V23     V95    10.0   .     S
V23     V48    10.0   1_545     S
V23     V47    10.0   .     S
V23     V44    10.0   1_645     S
V24     V14    10.0   1_655     S
V24     V20    10.0   1_655     S
V24     V44    10.0   1_655     S
V24     V2    10.0   1_655     S
V24     V96    10.0   .     S
V24     V47    10.0   .     S
V24     V48    10.0   .     S
V24     V43    10.0   1_655     S
V25     V31    10.0   .     S
V25     V35    10.0   1_455     S
V25     V27    10.0   .     S
V25     V29    10.0   1_455     S
V25     V60    10.0   1_455     S
V25     V41    10.0   1_455     S
V25     V55    10.0   .     S
V25     V56    10.0   .     S
V25     V59    10.0   1_455     S
V26     V32    10.0   .     S
V26     V36    10.0   1_455     S
V26     V28    10.0   .     S
V26     V30    10.0   1_455     S
V26     V59    10.0   1_465     S
V26     V42    10.0   1_455     S
V26     V56    10.0   .     S
V26     V55    10.0   1_565     S
V26     V60    10.0   1_455     S
V27     V33    10.0   .     S
V27     V31    10.0   .     S
V27     V29    10.0   .     S
V27     V56    10.0   .     S
V27     V37    10.0   .     S
V27     V57    10.0   .     S
V27     V58    10.0   .     S
V27     V55    10.0   .     S
V28     V34    10.0   .     S
V28     V32    10.0   .     S
V28     V30    10.0   .     S
V28     V55    10.0   1_565     S
V28     V38    10.0   .     S
V28     V58    10.0   .     S
V28     V57    10.0   1_565     S
V28     V56    10.0   .     S
V29     V35    10.0   .     S
V29     V33    10.0   .     S
V29     V25    10.0   1_655     S
V29     V58    10.0   .     S
V29     V39    10.0   .     S
V29     V59    10.0   .     S
V29     V60    10.0   .     S
V29     V57    10.0   .     S
V30     V36    10.0   .     S
V30     V34    10.0   .     S
V30     V26    10.0   1_655     S
V30     V57    10.0   1_565     S
V30     V40    10.0   .     S
V30     V60    10.0   .     S
V30     V59    10.0   1_565     S
V30     V58    10.0   .     S
V31     V35    10.0   1_455     S
V31     V33    10.0   .     S
V31     V49    10.0   .     S
V31     V52    10.0   .     S
V31     V79    10.0   1_556     S
V31     V67    10.0   1_556     S
V31     V50    10.0   .     S
V31     V51    10.0   .     S
V32     V36    10.0   1_455     S
V32     V34    10.0   .     S
V32     V50    10.0   .     S
V32     V51    10.0   1_565     S
V32     V80    10.0   1_556     S
V32     V68    10.0   1_556     S
V32     V49    10.0   1_565     S
V32     V52    10.0   .     S
V33     V35    10.0   .     S
V33     V51    10.0   .     S
V33     V54    10.0   .     S
V33     V81    10.0   1_556     S
V33     V69    10.0   1_556     S
V33     V52    10.0   .     S
V33     V53    10.0   .     S
V34     V36    10.0   .     S
V34     V52    10.0   .     S
V34     V53    10.0   1_565     S
V34     V82    10.0   1_556     S
V34     V70    10.0   1_556     S
V34     V51    10.0   1_565     S
V34     V54    10.0   .     S
V35     V25    10.0   1_655     S
V35     V31    10.0   1_655     S
V35     V53    10.0   .     S
V35     V50    10.0   1_655     S
V35     V83    10.0   1_556     S
V35     V71    10.0   1_556     S
V35     V54    10.0   .     S
V35     V49    10.0   1_655     S
V36     V26    10.0   1_655     S
V36     V32    10.0   1_655     S
V36     V54    10.0   .     S
V36     V49    10.0   1_665     S
V36     V84    10.0   1_556     S
V36     V72    10.0   1_556     S
V36     V53    10.0   1_565     S
V36     V50    10.0   1_655     S
V37     V43    10.0   .     S
V37     V45    10.0   .     S
V37     V41    10.0   1_455     S
V37     V39    10.0   .     S
V37     V56    10.0   .     S
V38     V44    10.0   .     S
V38     V46    10.0   .     S
V38     V42    10.0   1_455     S
V38     V40    10.0   .     S
V38     V55    10.0   1_565     S
V38     V13    10.0   1_565     S
V38     V15    10.0   1_565     S
V39     V45    10.0   .     S
V39     V47    10.0   .     S
V39     V41    10.0   .     S
V39     V58    10.0   .     S
V40     V46    10.0   .     S
V40     V48    10.0   .     S
V40     V42    10.0   .     S
V40     V57    10.0   1_565     S
V40     V15    10.0   1_565     S
V40     V17    10.0   1_565     S
V41     V47    10.0   .     S
V41     V43    10.0   1_655     S
V41     V37    10.0   1_655     S
V41     V60    10.0   .     S
V41     V25    10.0   1_655     S
V41     V13    10.0   1_655     S
V41     V14    10.0   1_655     S
V42     V48    10.0   .     S
V42     V44    10.0   1_655     S
V42     V38    10.0   1_655     S
V42     V59    10.0   1_565     S
V42     V17    10.0   1_565     S
V42     V26    10.0   1_655     S
V42     V14    10.0   1_655     S
V42     V13    10.0   1_665     S
V43     V41    10.0   1_455     S
V43     V45    10.0   .     S
V43     V47    10.0   1_455     S
V43     V23    10.0   1_455     S
V43     V92    10.0   .     S
V43     V24    10.0   1_455     S
V44     V42    10.0   1_455     S
V44     V46    10.0   .     S
V44     V48    10.0   1_455     S
V44     V24    10.0   1_455     S
V44     V19    10.0   1_565     S
V44     V91    10.0   1_565     S
V44     V23    10.0   1_465     S
V45     V47    10.0   .     S
V45     V94    10.0   .     S
V46     V48    10.0   .     S
V46     V21    10.0   1_565     S
V46     V93    10.0   1_565     S
V46     V19    10.0   1_565     S
V47     V43    10.0   1_655     S
V47     V96    10.0   .     S
V48     V44    10.0   1_655     S
V48     V23    10.0   1_565     S
V48     V95    10.0   1_565     S
V48     V21    10.0   1_565     S
V49     V55    10.0   .     S
V49     V59    10.0   1_455     S
V49     V51    10.0   .     S
V49     V53    10.0   1_455     S
V49     V67    10.0   1_556     S
V49     V84    10.0   1_446     S
V49     V36    10.0   1_445     S
V49     V32    10.0   1_545     S
V49     V35    10.0   1_455     S
V50     V56    10.0   .     S
V50     V60    10.0   1_455     S
V50     V52    10.0   .     S
V50     V54    10.0   1_455     S
V50     V68    10.0   1_556     S
V50     V83    10.0   1_456     S
V50     V35    10.0   1_455     S
V50     V36    10.0   1_455     S
V51     V57    10.0   .     S
V51     V55    10.0   .     S
V51     V53    10.0   .     S
V51     V69    10.0   1_556     S
V51     V80    10.0   1_546     S
V51     V32    10.0   1_545     S
V51     V34    10.0   1_545     S
V52     V58    10.0   .     S
V52     V56    10.0   .     S
V52     V54    10.0   .     S
V52     V70    10.0   1_556     S
V52     V79    10.0   1_556     S
V53     V59    10.0   .     S
V53     V57    10.0   .     S
V53     V49    10.0   1_655     S
V53     V71    10.0   1_556     S
V53     V82    10.0   1_546     S
V53     V34    10.0   1_545     S
V53     V36    10.0   1_545     S
V54     V60    10.0   .     S
V54     V58    10.0   .     S
V54     V50    10.0   1_655     S
V54     V72    10.0   1_556     S
V54     V81    10.0   1_556     S
V55     V59    10.0   1_455     S
V55     V57    10.0   .     S
V55     V38    10.0   1_545     S
V55     V28    10.0   1_545     S
V55     V26    10.0   1_545     S
V56     V60    10.0   1_455     S
V56     V58    10.0   .     S
V57     V59    10.0   .     S
V57     V40    10.0   1_545     S
V57     V30    10.0   1_545     S
V57     V28    10.0   1_545     S
V58     V60    10.0   .     S
V59     V49    10.0   1_655     S
V59     V55    10.0   1_655     S
V59     V42    10.0   1_545     S
V59     V26    10.0   1_645     S
V59     V30    10.0   1_545     S
V59     V25    10.0   1_655     S
V60     V50    10.0   1_655     S
V60     V56    10.0   1_655     S
V60     V25    10.0   1_655     S
V60     V26    10.0   1_655     S
V61     V67    10.0   .     S
V61     V69    10.0   .     S
V61     V65    10.0   1_455     S
V61     V63    10.0   .     S
V61     V76    10.0   1_545     S
V61     V87    10.0   .     S
V61     V73    10.0   .     S
V61     V74    10.0   1_545     S
V61     V75    10.0   .     S
V62     V68    10.0   .     S
V62     V70    10.0   .     S
V62     V66    10.0   1_455     S
V62     V64    10.0   .     S
V62     V75    10.0   .     S
V62     V88    10.0   .     S
V62     V74    10.0   .     S
V62     V73    10.0   .     S
V62     V76    10.0   .     S
V63     V69    10.0   .     S
V63     V71    10.0   .     S
V63     V65    10.0   .     S
V63     V78    10.0   1_545     S
V63     V89    10.0   .     S
V63     V75    10.0   .     S
V63     V76    10.0   1_545     S
V63     V77    10.0   .     S
V64     V70    10.0   .     S
V64     V72    10.0   .     S
V64     V66    10.0   .     S
V64     V77    10.0   .     S
V64     V90    10.0   .     S
V64     V76    10.0   .     S
V64     V75    10.0   .     S
V64     V78    10.0   .     S
V65     V71    10.0   .     S
V65     V67    10.0   1_655     S
V65     V61    10.0   1_655     S
V65     V74    10.0   1_645     S
V65     V85    10.0   1_655     S
V65     V77    10.0   .     S
V65     V78    10.0   1_545     S
V65     V73    10.0   1_655     S
V66     V72    10.0   .     S
V66     V68    10.0   1_655     S
V66     V62    10.0   1_655     S
V66     V73    10.0   1_655     S
V66     V86    10.0   1_655     S
V66     V78    10.0   .     S
V66     V77    10.0   .     S
V66     V74    10.0   1_655     S
V67     V65    10.0   1_455     S
V67     V69    10.0   .     S
V67     V71    10.0   1_455     S
V67     V49    10.0   1_554     S
V67     V84    10.0   1_445     S
V67     V79    10.0   .     S
V67     V31    10.0   1_554     S
V67     V80    10.0   1_545     S
V67     V83    10.0   1_455     S
V68     V66    10.0   1_455     S
V68     V70    10.0   .     S
V68     V72    10.0   1_455     S
V68     V50    10.0   1_554     S
V68     V83    10.0   1_455     S
V68     V80    10.0   .     S
V68     V32    10.0   1_554     S
V68     V79    10.0   .     S
V68     V84    10.0   1_455     S
V69     V71    10.0   .     S
V69     V51    10.0   1_554     S
V69     V80    10.0   1_545     S
V69     V81    10.0   .     S
V69     V33    10.0   1_554     S
V69     V82    10.0   1_545     S
V69     V79    10.0   .     S
V70     V72    10.0   .     S
V70     V52    10.0   1_554     S
V70     V79    10.0   .     S
V70     V82    10.0   .     S
V70     V34    10.0   1_554     S
V70     V81    10.0   .     S
V70     V80    10.0   .     S
V71     V67    10.0   1_655     S
V71     V53    10.0   1_554     S
V71     V82    10.0   1_545     S
V71     V83    10.0   .     S
V71     V35    10.0   1_554     S
V71     V84    10.0   1_545     S
V71     V81    10.0   .     S
V72     V68    10.0   1_655     S
V72     V54    10.0   1_554     S
V72     V81    10.0   .     S
V72     V84    10.0   .     S
V72     V36    10.0   1_554     S
V72     V83    10.0   .     S
V72     V82    10.0   .     S
V73     V79    10.0   .     S
V73     V83    10.0   1_455     S
V73     V75    10.0   .     S
V73     V77    10.0   1_455     S
V73     V86    10.0   .     S
V73     V66    10.0   1_455     S
V73     V65    10.0   1_455     S
V74     V80    10.0   .     S
V74     V84    10.0   1_455     S
V74     V76    10.0   .     S
V74     V78    10.0   1_455     S
V74     V85    10.0   1_565     S
V74     V65    10.0   1_465     S
V74     V61    10.0   1_565     S
V74     V66    10.0   1_455     S
V75     V81    10.0   .     S
V75     V79    10.0   .     S
V75     V77    10.0   .     S
V75     V88    10.0   .     S
V76     V82    10.0   .     S
V76     V80    10.0   .     S
V76     V78    10.0   .     S
V76     V87    10.0   1_565     S
V76     V61    10.0   1_565     S
V76     V63    10.0   1_565     S
V77     V83    10.0   .     S
V77     V81    10.0   .     S
V77     V73    10.0   1_655     S
V77     V90    10.0   .     S
V78     V84    10.0   .     S
V78     V82    10.0   .     S
V78     V74    10.0   1_655     S
V78     V89    10.0   1_565     S
V78     V63    10.0   1_565     S
V78     V65    10.0   1_565     S
V79     V83    10.0   1_455     S
V79     V81    10.0   .     S
V79     V52    10.0   1_554     S
V79     V31    10.0   1_554     S
V80     V84    10.0   1_455     S
V80     V82    10.0   .     S
V80     V69    10.0   1_565     S
V80     V51    10.0   1_564     S
V80     V32    10.0   1_554     S
V80     V67    10.0   1_565     S
V81     V83    10.0   .     S
V81     V54    10.0   1_554     S
V81     V33    10.0   1_554     S
V82     V84    10.0   .     S
V82     V71    10.0   1_565     S
V82     V53    10.0   1_564     S
V82     V34    10.0   1_554     S
V82     V69    10.0   1_565     S
V83     V73    10.0   1_655     S
V83     V79    10.0   1_655     S
V83     V68    10.0   1_655     S
V83     V50    10.0   1_654     S
V83     V35    10.0   1_554     S
V83     V67    10.0   1_655     S
V84     V74    10.0   1_655     S
V84     V80    10.0   1_655     S
V84     V67    10.0   1_665     S
V84     V49    10.0   1_664     S
V84     V36    10.0   1_554     S
V84     V71    10.0   1_565     S
V84     V68    10.0   1_655     S
V85     V91    10.0   .     S
V85     V95    10.0   1_455     S
V85     V87    10.0   .     S
V85     V89    10.0   1_455     S
V85     V74    10.0   1_545     S
V85     V8    10.0   1_545     S
V85     V65    10.0   1_455     S
V85     V11    10.0   1_455     S
V85     V12    10.0   1_445     S
V86     V92    10.0   .     S
V86     V96    10.0   1_455     S
V86     V88    10.0   .     S
V86     V90    10.0   1_455     S
V86     V66    10.0   1_455     S
V86     V12    10.0   1_455     S
V86     V11    10.0   1_455     S
V87     V93    10.0   .     S
V87     V91    10.0   .     S
V87     V89    10.0   .     S
V87     V76    10.0   1_545     S
V87     V10    10.0   1_545     S
V87     V8    10.0   1_545     S
V88     V94    10.0   .     S
V88     V92    10.0   .     S
V88     V90    10.0   .     S
V89     V95    10.0   .     S
V89     V93    10.0   .     S
V89     V85    10.0   1_655     S
V89     V78    10.0   1_545     S
V89     V12    10.0   1_545     S
V89     V10    10.0   1_545     S
V90     V96    10.0   .     S
V90     V94    10.0   .     S
V90     V86    10.0   1_655     S
V91     V95    10.0   1_455     S
V91     V93    10.0   .     S
V91     V2    10.0   1_545     S
V91     V44    10.0   1_545     S
V91     V4    10.0   1_545     S
V92     V96    10.0   1_455     S
V92     V94    10.0   .     S
V93     V95    10.0   .     S
V93     V4    10.0   1_545     S
V93     V46    10.0   1_545     S
V93     V6    10.0   1_545     S
V94     V96    10.0   .     S
V95     V85    10.0   1_655     S
V95     V91    10.0   1_655     S
V95     V6    10.0   1_545     S
V95     V1    10.0   1_655     S
V95     V48    10.0   1_545     S
V95     V2    10.0   1_645     S
V96     V86    10.0   1_655     S
V96     V92    10.0   1_655     S
V96     V2    10.0   1_655     S
V96     V1    10.0   1_655     S
