data_tcg-x
_audit_creation_date              2019-12-31
_audit_creation_method            'Pymatgen'
_symmetry_space_group_name_H-M    'P1'
_symmetry_Int_Tables_number       1
loop_
_symmetry_equiv_pos_as_xyz
  x,y,z
_cell_length_a                    35.2816
_cell_length_b                    31.1908
_cell_length_c                    27.3267
_cell_angle_alpha                 90.0
_cell_angle_beta                 90.0
_cell_angle_gamma                 90.0
loop_
_atom_site_label
_atom_site_type_symbol
_atom_site_fract_x
_atom_site_fract_y
_atom_site_fract_z
V1     V     0.1916   0.125   0.0417
V2     V     0.1916   0.125   0.375
V3     V     0.1916   0.125   0.7083
V4     V     0.1916   0.625   0.0417
V5     V     0.1916   0.625   0.375
V6     V     0.1916   0.625   0.7083
V7     V     0.6916   0.125   0.0417
V8     V     0.6916   0.125   0.375
V9     V     0.6916   0.125   0.7083
V10     V     0.6916   0.625   0.0417
V11     V     0.6916   0.625   0.375
V12     V     0.6916   0.625   0.7083
V13     V     0.3084   0.375   0.2917
V14     V     0.3084   0.375   0.625
V15     V     0.3084   0.375   0.9583
V16     V     0.3084   0.875   0.2917
V17     V     0.3084   0.875   0.625
V18     V     0.3084   0.875   0.9583
V19     V     0.8084   0.375   0.2917
V20     V     0.8084   0.375   0.625
V21     V     0.8084   0.375   0.9583
V22     V     0.8084   0.875   0.2917
V23     V     0.8084   0.875   0.625
V24     V     0.8084   0.875   0.9583
V25     V     0.4416   0.125   0.125
V26     V     0.4416   0.125   0.4583
V27     V     0.4416   0.125   0.7917
V28     V     0.4416   0.625   0.125
V29     V     0.4416   0.625   0.4583
V30     V     0.4416   0.625   0.7917
V31     V     0.9416   0.125   0.125
V32     V     0.9416   0.125   0.4583
V33     V     0.9416   0.125   0.7917
V34     V     0.9416   0.625   0.125
V35     V     0.9416   0.625   0.4583
V36     V     0.9416   0.625   0.7917
V37     V     0.0584   0.375   0.2083
V38     V     0.0584   0.375   0.5417
V39     V     0.0584   0.375   0.875
V40     V     0.0584   0.875   0.2083
V41     V     0.0584   0.875   0.5417
V42     V     0.0584   0.875   0.875
V43     V     0.5584   0.375   0.2083
V44     V     0.5584   0.375   0.5417
V45     V     0.5584   0.375   0.875
V46     V     0.5584   0.875   0.2083
V47     V     0.5584   0.875   0.5417
V48     V     0.5584   0.875   0.875
loop_
_geom_bond_atom_site_label_1
_geom_bond_atom_site_label_2
_geom_bond_distance
_geom_bond_site_symmetry_2
_ccdc_geom_bond_type
V1     V13    11.156   .     S
V1     V16    11.156   1_545     S
V1     V33    11.157   1_454     S
V1     V27    11.157   1_554     S
V1     V37    10.18   .     S
V1     V39    10.18   1_554     S
V1     V42    10.18   1_544     S
V1     V40    10.18   1_545     S
V1     V15    9.109   1_554     S
V1     V2    9.109   .     S
V1     V3    9.109   1_554     S
V1     V18    9.109   1_544     S
V1     V31    9.11   1_455     S
V1     V25    9.11   .     S
V2     V14    11.156   .     S
V2     V17    11.156   1_545     S
V2     V31    11.157   1_455     S
V2     V25    11.157   .     S
V2     V38    10.18   .     S
V2     V37    10.18   .     S
V2     V40    10.18   1_545     S
V2     V41    10.18   1_545     S
V2     V13    9.109   .     S
V2     V3    9.109   .     S
V2     V16    9.109   1_545     S
V2     V32    9.11   1_455     S
V2     V26    9.11   .     S
V3     V15    11.156   .     S
V3     V18    11.156   1_545     S
V3     V32    11.157   1_455     S
V3     V26    11.157   .     S
V3     V39    10.18   .     S
V3     V38    10.18   .     S
V3     V41    10.18   1_545     S
V3     V42    10.18   1_545     S
V3     V14    9.109   .     S
V3     V1    9.109   1_556     S
V3     V17    9.109   1_545     S
V3     V33    9.11   1_455     S
V3     V27    9.11   .     S
V4     V16    11.156   .     S
V4     V13    11.156   .     S
V4     V36    11.157   1_454     S
V4     V30    11.157   1_554     S
V4     V40    10.18   .     S
V4     V42    10.18   1_554     S
V4     V39    10.18   1_554     S
V4     V37    10.18   .     S
V4     V18    9.109   1_554     S
V4     V5    9.109   .     S
V4     V6    9.109   1_554     S
V4     V15    9.109   1_554     S
V4     V34    9.11   1_455     S
V4     V28    9.11   .     S
V5     V17    11.156   .     S
V5     V14    11.156   .     S
V5     V34    11.157   1_455     S
V5     V28    11.157   .     S
V5     V41    10.18   .     S
V5     V40    10.18   .     S
V5     V37    10.18   .     S
V5     V38    10.18   .     S
V5     V16    9.109   .     S
V5     V6    9.109   .     S
V5     V13    9.109   .     S
V5     V35    9.11   1_455     S
V5     V29    9.11   .     S
V6     V18    11.156   .     S
V6     V15    11.156   .     S
V6     V35    11.157   1_455     S
V6     V29    11.157   .     S
V6     V42    10.18   .     S
V6     V41    10.18   .     S
V6     V38    10.18   .     S
V6     V39    10.18   .     S
V6     V17    9.109   .     S
V6     V4    9.109   1_556     S
V6     V14    9.109   .     S
V6     V36    9.11   1_455     S
V6     V30    9.11   .     S
V7     V19    11.156   .     S
V7     V22    11.156   1_545     S
V7     V27    11.157   1_554     S
V7     V33    11.157   1_554     S
V7     V43    10.18   .     S
V7     V45    10.18   1_554     S
V7     V48    10.18   1_544     S
V7     V46    10.18   1_545     S
V7     V21    9.109   1_554     S
V7     V8    9.109   .     S
V7     V9    9.109   1_554     S
V7     V24    9.109   1_544     S
V7     V25    9.11   .     S
V7     V31    9.11   .     S
V8     V20    11.156   .     S
V8     V23    11.156   1_545     S
V8     V25    11.157   .     S
V8     V31    11.157   .     S
V8     V44    10.18   .     S
V8     V43    10.18   .     S
V8     V46    10.18   1_545     S
V8     V47    10.18   1_545     S
V8     V19    9.109   .     S
V8     V9    9.109   .     S
V8     V22    9.109   1_545     S
V8     V26    9.11   .     S
V8     V32    9.11   .     S
V9     V21    11.156   .     S
V9     V24    11.156   1_545     S
V9     V26    11.157   .     S
V9     V32    11.157   .     S
V9     V45    10.18   .     S
V9     V44    10.18   .     S
V9     V47    10.18   1_545     S
V9     V48    10.18   1_545     S
V9     V20    9.109   .     S
V9     V7    9.109   1_556     S
V9     V23    9.109   1_545     S
V9     V27    9.11   .     S
V9     V33    9.11   .     S
V10     V22    11.156   .     S
V10     V19    11.156   .     S
V10     V30    11.157   1_554     S
V10     V36    11.157   1_554     S
V10     V46    10.18   .     S
V10     V48    10.18   1_554     S
V10     V45    10.18   1_554     S
V10     V43    10.18   .     S
V10     V24    9.109   1_554     S
V10     V11    9.109   .     S
V10     V12    9.109   1_554     S
V10     V21    9.109   1_554     S
V10     V28    9.11   .     S
V10     V34    9.11   .     S
V11     V23    11.156   .     S
V11     V20    11.156   .     S
V11     V28    11.157   .     S
V11     V34    11.157   .     S
V11     V47    10.18   .     S
V11     V46    10.18   .     S
V11     V43    10.18   .     S
V11     V44    10.18   .     S
V11     V22    9.109   .     S
V11     V12    9.109   .     S
V11     V19    9.109   .     S
V11     V29    9.11   .     S
V11     V35    9.11   .     S
V12     V24    11.156   .     S
V12     V21    11.156   .     S
V12     V29    11.157   .     S
V12     V35    11.157   .     S
V12     V48    10.18   .     S
V12     V47    10.18   .     S
V12     V44    10.18   .     S
V12     V45    10.18   .     S
V12     V23    9.109   .     S
V12     V10    9.109   1_556     S
V12     V20    9.109   .     S
V12     V30    9.11   .     S
V12     V36    9.11   .     S
V13     V38    11.157   .     S
V13     V44    11.157   .     S
V13     V29    10.18   .     S
V13     V28    10.18   .     S
V13     V25    10.18   .     S
V13     V26    10.18   .     S
V13     V15    9.109   1_554     S
V13     V14    9.109   .     S
V13     V37    9.11   .     S
V13     V43    9.11   .     S
V14     V39    11.157   .     S
V14     V45    11.157   .     S
V14     V30    10.18   .     S
V14     V29    10.18   .     S
V14     V26    10.18   .     S
V14     V27    10.18   .     S
V14     V15    9.109   .     S
V14     V38    9.11   .     S
V14     V44    9.11   .     S
V15     V37    11.157   1_556     S
V15     V43    11.157   1_556     S
V15     V28    10.18   1_556     S
V15     V30    10.18   .     S
V15     V27    10.18   .     S
V15     V25    10.18   1_556     S
V15     V1    9.109   1_556     S
V15     V4    9.109   1_556     S
V15     V13    9.109   1_556     S
V15     V39    9.11   .     S
V15     V45    9.11   .     S
V16     V1    11.156   1_565     S
V16     V41    11.157   .     S
V16     V47    11.157   .     S
V16     V26    10.18   1_565     S
V16     V25    10.18   1_565     S
V16     V28    10.18   .     S
V16     V29    10.18   .     S
V16     V2    9.109   1_565     S
V16     V18    9.109   1_554     S
V16     V17    9.109   .     S
V16     V40    9.11   .     S
V16     V46    9.11   .     S
V17     V2    11.156   1_565     S
V17     V42    11.157   .     S
V17     V48    11.157   .     S
V17     V27    10.18   1_565     S
V17     V26    10.18   1_565     S
V17     V29    10.18   .     S
V17     V30    10.18   .     S
V17     V3    9.109   1_565     S
V17     V18    9.109   .     S
V17     V41    9.11   .     S
V17     V47    9.11   .     S
V18     V3    11.156   1_565     S
V18     V40    11.157   1_556     S
V18     V46    11.157   1_556     S
V18     V25    10.18   1_566     S
V18     V27    10.18   1_565     S
V18     V30    10.18   .     S
V18     V28    10.18   1_556     S
V18     V4    9.109   1_556     S
V18     V1    9.109   1_566     S
V18     V16    9.109   1_556     S
V18     V42    9.11   .     S
V18     V48    9.11   .     S
V19     V44    11.157   .     S
V19     V38    11.157   1_655     S
V19     V35    10.18   .     S
V19     V34    10.18   .     S
V19     V31    10.18   .     S
V19     V32    10.18   .     S
V19     V21    9.109   1_554     S
V19     V20    9.109   .     S
V19     V43    9.11   .     S
V19     V37    9.11   1_655     S
V20     V45    11.157   .     S
V20     V39    11.157   1_655     S
V20     V36    10.18   .     S
V20     V35    10.18   .     S
V20     V32    10.18   .     S
V20     V33    10.18   .     S
V20     V21    9.109   .     S
V20     V44    9.11   .     S
V20     V38    9.11   1_655     S
V21     V43    11.157   1_556     S
V21     V37    11.157   1_656     S
V21     V34    10.18   1_556     S
V21     V36    10.18   .     S
V21     V33    10.18   .     S
V21     V31    10.18   1_556     S
V21     V7    9.109   1_556     S
V21     V10    9.109   1_556     S
V21     V19    9.109   1_556     S
V21     V45    9.11   .     S
V21     V39    9.11   1_655     S
V22     V7    11.156   1_565     S
V22     V47    11.157   .     S
V22     V41    11.157   1_655     S
V22     V32    10.18   1_565     S
V22     V31    10.18   1_565     S
V22     V34    10.18   .     S
V22     V35    10.18   .     S
V22     V8    9.109   1_565     S
V22     V24    9.109   1_554     S
V22     V23    9.109   .     S
V22     V46    9.11   .     S
V22     V40    9.11   1_655     S
V23     V8    11.156   1_565     S
V23     V48    11.157   .     S
V23     V42    11.157   1_655     S
V23     V33    10.18   1_565     S
V23     V32    10.18   1_565     S
V23     V35    10.18   .     S
V23     V36    10.18   .     S
V23     V9    9.109   1_565     S
V23     V24    9.109   .     S
V23     V47    9.11   .     S
V23     V41    9.11   1_655     S
V24     V9    11.156   1_565     S
V24     V46    11.157   1_556     S
V24     V40    11.157   1_656     S
V24     V31    10.18   1_566     S
V24     V33    10.18   1_565     S
V24     V36    10.18   .     S
V24     V34    10.18   1_556     S
V24     V10    9.109   1_556     S
V24     V7    9.109   1_566     S
V24     V22    9.109   1_556     S
V24     V48    9.11   .     S
V24     V42    9.11   1_655     S
V25     V45    11.156   1_554     S
V25     V48    11.156   1_544     S
V25     V18    10.18   1_544     S
V25     V16    10.18   1_545     S
V25     V15    10.18   1_554     S
V25     V43    9.109   .     S
V25     V26    9.109   .     S
V25     V27    9.109   1_554     S
V25     V46    9.109   1_545     S
V26     V43    11.156   .     S
V26     V46    11.156   1_545     S
V26     V16    10.18   1_545     S
V26     V17    10.18   1_545     S
V26     V44    9.109   .     S
V26     V27    9.109   .     S
V26     V47    9.109   1_545     S
V27     V7    11.157   1_556     S
V27     V1    11.157   1_556     S
V27     V44    11.156   .     S
V27     V47    11.156   1_545     S
V27     V17    10.18   1_545     S
V27     V18    10.18   1_545     S
V27     V45    9.109   .     S
V27     V25    9.109   1_556     S
V27     V48    9.109   1_545     S
V28     V48    11.156   1_554     S
V28     V45    11.156   1_554     S
V28     V15    10.18   1_554     S
V28     V18    10.18   1_554     S
V28     V46    9.109   .     S
V28     V29    9.109   .     S
V28     V30    9.109   1_554     S
V28     V43    9.109   .     S
V29     V46    11.156   .     S
V29     V43    11.156   .     S
V29     V47    9.109   .     S
V29     V30    9.109   .     S
V29     V44    9.109   .     S
V30     V10    11.157   1_556     S
V30     V4    11.157   1_556     S
V30     V47    11.156   .     S
V30     V44    11.156   .     S
V30     V48    9.109   .     S
V30     V28    9.109   1_556     S
V30     V45    9.109   .     S
V31     V2    11.157   1_655     S
V31     V39    11.156   1_654     S
V31     V42    11.156   1_644     S
V31     V24    10.18   1_544     S
V31     V22    10.18   1_545     S
V31     V21    10.18   1_554     S
V31     V1    9.11   1_655     S
V31     V37    9.109   1_655     S
V31     V32    9.109   .     S
V31     V33    9.109   1_554     S
V31     V40    9.109   1_645     S
V32     V3    11.157   1_655     S
V32     V37    11.156   1_655     S
V32     V40    11.156   1_645     S
V32     V22    10.18   1_545     S
V32     V23    10.18   1_545     S
V32     V2    9.11   1_655     S
V32     V38    9.109   1_655     S
V32     V33    9.109   .     S
V32     V41    9.109   1_645     S
V33     V1    11.157   1_656     S
V33     V7    11.157   1_556     S
V33     V38    11.156   1_655     S
V33     V41    11.156   1_645     S
V33     V23    10.18   1_545     S
V33     V24    10.18   1_545     S
V33     V3    9.11   1_655     S
V33     V39    9.109   1_655     S
V33     V31    9.109   1_556     S
V33     V42    9.109   1_645     S
V34     V5    11.157   1_655     S
V34     V42    11.156   1_654     S
V34     V39    11.156   1_654     S
V34     V21    10.18   1_554     S
V34     V24    10.18   1_554     S
V34     V4    9.11   1_655     S
V34     V40    9.109   1_655     S
V34     V35    9.109   .     S
V34     V36    9.109   1_554     S
V34     V37    9.109   1_655     S
V35     V6    11.157   1_655     S
V35     V40    11.156   1_655     S
V35     V37    11.156   1_655     S
V35     V5    9.11   1_655     S
V35     V41    9.109   1_655     S
V35     V36    9.109   .     S
V35     V38    9.109   1_655     S
V36     V4    11.157   1_656     S
V36     V10    11.157   1_556     S
V36     V41    11.156   1_655     S
V36     V38    11.156   1_655     S
V36     V6    9.11   1_655     S
V36     V42    9.109   1_655     S
V36     V34    9.109   1_556     S
V36     V39    9.109   1_655     S
V37     V15    11.157   1_554     S
V37     V21    11.157   1_454     S
V37     V32    11.156   1_455     S
V37     V35    11.156   1_455     S
V37     V19    9.11   1_455     S
V37     V31    9.109   1_455     S
V37     V34    9.109   1_455     S
V37     V39    9.109   1_554     S
V37     V38    9.109   .     S
V38     V19    11.157   1_455     S
V38     V33    11.156   1_455     S
V38     V36    11.156   1_455     S
V38     V20    9.11   1_455     S
V38     V32    9.109   1_455     S
V38     V35    9.109   1_455     S
V38     V39    9.109   .     S
V39     V20    11.157   1_455     S
V39     V31    11.156   1_456     S
V39     V34    11.156   1_456     S
V39     V1    10.18   1_556     S
V39     V4    10.18   1_556     S
V39     V21    9.11   1_455     S
V39     V33    9.109   1_455     S
V39     V36    9.109   1_455     S
V39     V37    9.109   1_556     S
V40     V18    11.157   1_554     S
V40     V24    11.157   1_454     S
V40     V35    11.156   1_455     S
V40     V32    11.156   1_465     S
V40     V2    10.18   1_565     S
V40     V1    10.18   1_565     S
V40     V22    9.11   1_455     S
V40     V34    9.109   1_455     S
V40     V31    9.109   1_465     S
V40     V42    9.109   1_554     S
V40     V41    9.109   .     S
V41     V22    11.157   1_455     S
V41     V36    11.156   1_455     S
V41     V33    11.156   1_465     S
V41     V3    10.18   1_565     S
V41     V2    10.18   1_565     S
V41     V23    9.11   1_455     S
V41     V35    9.109   1_455     S
V41     V32    9.109   1_465     S
V41     V42    9.109   .     S
V42     V23    11.157   1_455     S
V42     V34    11.156   1_456     S
V42     V31    11.156   1_466     S
V42     V4    10.18   1_556     S
V42     V1    10.18   1_566     S
V42     V3    10.18   1_565     S
V42     V24    9.11   1_455     S
V42     V36    9.109   1_455     S
V42     V33    9.109   1_465     S
V42     V40    9.109   1_556     S
V43     V21    11.157   1_554     S
V43     V15    11.157   1_554     S
V43     V45    9.109   1_554     S
V43     V44    9.109   .     S
V44     V45    9.109   .     S
V45     V25    11.156   1_556     S
V45     V28    11.156   1_556     S
V45     V7    10.18   1_556     S
V45     V10    10.18   1_556     S
V45     V43    9.109   1_556     S
V46     V24    11.157   1_554     S
V46     V18    11.157   1_554     S
V46     V26    11.156   1_565     S
V46     V8    10.18   1_565     S
V46     V7    10.18   1_565     S
V46     V25    9.109   1_565     S
V46     V48    9.109   1_554     S
V46     V47    9.109   .     S
V47     V27    11.156   1_565     S
V47     V9    10.18   1_565     S
V47     V8    10.18   1_565     S
V47     V26    9.109   1_565     S
V47     V48    9.109   .     S
V48     V28    11.156   1_556     S
V48     V25    11.156   1_566     S
V48     V10    10.18   1_556     S
V48     V7    10.18   1_566     S
V48     V9    10.18   1_565     S
V48     V27    9.109   1_565     S
V48     V46    9.109   1_556     S
