data_tcg
_audit_creation_date              2019-12-31
_audit_creation_method            'Pymatgen'
_symmetry_space_group_name_H-M    'P1'
_symmetry_Int_Tables_number       1
loop_
_symmetry_equiv_pos_as_xyz
  x,y,z
_cell_length_a                    38.7266
_cell_length_b                    30.9866
_cell_length_c                    29.9997
_cell_angle_alpha                 90.0
_cell_angle_beta                 90.0
_cell_angle_gamma                 90.0
loop_
_atom_site_label
_atom_site_type_symbol
_atom_site_fract_x
_atom_site_fract_y
_atom_site_fract_z
V1     V     0.425   0.125   0.1251
V2     V     0.425   0.125   0.4584
V3     V     0.425   0.125   0.7917
V4     V     0.425   0.625   0.1251
V5     V     0.425   0.625   0.4584
V6     V     0.425   0.625   0.7917
V7     V     0.925   0.125   0.1251
V8     V     0.925   0.125   0.4584
V9     V     0.925   0.125   0.7917
V10     V     0.925   0.625   0.1251
V11     V     0.925   0.625   0.4584
V12     V     0.925   0.625   0.7917
V13     V     0.325   0.375   0.2917
V14     V     0.325   0.375   0.6251
V15     V     0.325   0.375   0.9584
V16     V     0.325   0.875   0.2917
V17     V     0.325   0.875   0.6251
V18     V     0.325   0.875   0.9584
V19     V     0.825   0.375   0.2917
V20     V     0.825   0.375   0.6251
V21     V     0.825   0.375   0.9584
V22     V     0.825   0.875   0.2917
V23     V     0.825   0.875   0.6251
V24     V     0.825   0.875   0.9584
V25     V     0.075   0.375   0.2083
V26     V     0.075   0.375   0.5416
V27     V     0.075   0.375   0.8749
V28     V     0.075   0.875   0.2083
V29     V     0.075   0.875   0.5416
V30     V     0.075   0.875   0.8749
V31     V     0.575   0.375   0.2083
V32     V     0.575   0.375   0.5416
V33     V     0.575   0.375   0.8749
V34     V     0.575   0.875   0.2083
V35     V     0.575   0.875   0.5416
V36     V     0.575   0.875   0.8749
V37     V     0.175   0.125   0.0416
V38     V     0.175   0.125   0.3749
V39     V     0.175   0.125   0.7083
V40     V     0.175   0.625   0.0416
V41     V     0.175   0.625   0.3749
V42     V     0.175   0.625   0.7083
V43     V     0.675   0.125   0.0416
V44     V     0.675   0.125   0.3749
V45     V     0.675   0.125   0.7083
V46     V     0.675   0.625   0.0416
V47     V     0.675   0.625   0.3749
V48     V     0.675   0.625   0.7083
loop_
_geom_bond_atom_site_label_1
_geom_bond_atom_site_label_2
_geom_bond_distance
_geom_bond_site_symmetry_2
_ccdc_geom_bond_type
V1     V37    10.0   .     S
V1     V18    10.0   1_544     S
V1     V16    10.0   1_545     S
V1     V2    10.0   .     S
V1     V3    10.0   1_554     S
V1     V13    10.0   .     S
V1     V15    10.0   1_554     S
V1     V31    10.0   .     S
V1     V43    10.0   .     S
V1     V34    10.0   1_545     S
V2     V38    10.0   .     S
V2     V16    10.0   1_545     S
V2     V17    10.0   1_545     S
V2     V3    10.0   .     S
V2     V14    10.0   .     S
V2     V13    10.0   .     S
V2     V32    10.0   .     S
V2     V44    10.0   .     S
V2     V35    10.0   1_545     S
V3     V39    10.0   .     S
V3     V17    10.0   1_545     S
V3     V18    10.0   1_545     S
V3     V1    10.0   1_556     S
V3     V15    10.0   .     S
V3     V14    10.0   .     S
V3     V33    10.0   .     S
V3     V45    10.0   .     S
V3     V36    10.0   1_545     S
V4     V40    10.0   .     S
V4     V15    10.0   1_554     S
V4     V13    10.0   .     S
V4     V5    10.0   .     S
V4     V6    10.0   1_554     S
V4     V16    10.0   .     S
V4     V18    10.0   1_554     S
V4     V34    10.0   .     S
V4     V46    10.0   .     S
V4     V31    10.0   .     S
V5     V41    10.0   .     S
V5     V13    10.0   .     S
V5     V14    10.0   .     S
V5     V6    10.0   .     S
V5     V17    10.0   .     S
V5     V16    10.0   .     S
V5     V35    10.0   .     S
V5     V47    10.0   .     S
V5     V32    10.0   .     S
V6     V42    10.0   .     S
V6     V14    10.0   .     S
V6     V15    10.0   .     S
V6     V4    10.0   1_556     S
V6     V18    10.0   .     S
V6     V17    10.0   .     S
V6     V36    10.0   .     S
V6     V48    10.0   .     S
V6     V33    10.0   .     S
V7     V43    10.0   .     S
V7     V24    10.0   1_544     S
V7     V22    10.0   1_545     S
V7     V8    10.0   .     S
V7     V9    10.0   1_554     S
V7     V19    10.0   .     S
V7     V21    10.0   1_554     S
V7     V25    10.0   1_655     S
V7     V37    10.0   1_655     S
V7     V28    10.0   1_645     S
V8     V44    10.0   .     S
V8     V22    10.0   1_545     S
V8     V23    10.0   1_545     S
V8     V9    10.0   .     S
V8     V20    10.0   .     S
V8     V19    10.0   .     S
V8     V26    10.0   1_655     S
V8     V38    10.0   1_655     S
V8     V29    10.0   1_645     S
V9     V45    10.0   .     S
V9     V23    10.0   1_545     S
V9     V24    10.0   1_545     S
V9     V7    10.0   1_556     S
V9     V21    10.0   .     S
V9     V20    10.0   .     S
V9     V27    10.0   1_655     S
V9     V39    10.0   1_655     S
V9     V30    10.0   1_645     S
V10     V46    10.0   .     S
V10     V21    10.0   1_554     S
V10     V19    10.0   .     S
V10     V11    10.0   .     S
V10     V12    10.0   1_554     S
V10     V22    10.0   .     S
V10     V24    10.0   1_554     S
V10     V28    10.0   1_655     S
V10     V40    10.0   1_655     S
V10     V25    10.0   1_655     S
V11     V47    10.0   .     S
V11     V19    10.0   .     S
V11     V20    10.0   .     S
V11     V12    10.0   .     S
V11     V23    10.0   .     S
V11     V22    10.0   .     S
V11     V29    10.0   1_655     S
V11     V41    10.0   1_655     S
V11     V26    10.0   1_655     S
V12     V48    10.0   .     S
V12     V20    10.0   .     S
V12     V21    10.0   .     S
V12     V10    10.0   1_556     S
V12     V24    10.0   .     S
V12     V23    10.0   .     S
V12     V30    10.0   1_655     S
V12     V42    10.0   1_655     S
V12     V27    10.0   1_655     S
V13     V38    10.0   .     S
V13     V25    10.0   .     S
V13     V41    10.0   .     S
V13     V15    10.0   1_554     S
V13     V14    10.0   .     S
V13     V31    10.0   .     S
V14     V39    10.0   .     S
V14     V26    10.0   .     S
V14     V42    10.0   .     S
V14     V15    10.0   .     S
V14     V32    10.0   .     S
V15     V37    10.0   1_556     S
V15     V27    10.0   .     S
V15     V40    10.0   1_556     S
V15     V4    10.0   1_556     S
V15     V1    10.0   1_556     S
V15     V13    10.0   1_556     S
V15     V33    10.0   .     S
V16     V41    10.0   .     S
V16     V28    10.0   .     S
V16     V38    10.0   1_565     S
V16     V2    10.0   1_565     S
V16     V1    10.0   1_565     S
V16     V18    10.0   1_554     S
V16     V17    10.0   .     S
V16     V34    10.0   .     S
V17     V42    10.0   .     S
V17     V29    10.0   .     S
V17     V39    10.0   1_565     S
V17     V3    10.0   1_565     S
V17     V2    10.0   1_565     S
V17     V18    10.0   .     S
V17     V35    10.0   .     S
V18     V40    10.0   1_556     S
V18     V30    10.0   .     S
V18     V37    10.0   1_566     S
V18     V1    10.0   1_566     S
V18     V3    10.0   1_565     S
V18     V4    10.0   1_556     S
V18     V16    10.0   1_556     S
V18     V36    10.0   .     S
V19     V44    10.0   .     S
V19     V31    10.0   .     S
V19     V47    10.0   .     S
V19     V21    10.0   1_554     S
V19     V20    10.0   .     S
V19     V25    10.0   1_655     S
V20     V45    10.0   .     S
V20     V32    10.0   .     S
V20     V48    10.0   .     S
V20     V21    10.0   .     S
V20     V26    10.0   1_655     S
V21     V43    10.0   1_556     S
V21     V33    10.0   .     S
V21     V46    10.0   1_556     S
V21     V10    10.0   1_556     S
V21     V7    10.0   1_556     S
V21     V19    10.0   1_556     S
V21     V27    10.0   1_655     S
V22     V47    10.0   .     S
V22     V34    10.0   .     S
V22     V44    10.0   1_565     S
V22     V8    10.0   1_565     S
V22     V7    10.0   1_565     S
V22     V24    10.0   1_554     S
V22     V23    10.0   .     S
V22     V28    10.0   1_655     S
V23     V48    10.0   .     S
V23     V35    10.0   .     S
V23     V45    10.0   1_565     S
V23     V9    10.0   1_565     S
V23     V8    10.0   1_565     S
V23     V24    10.0   .     S
V23     V29    10.0   1_655     S
V24     V46    10.0   1_556     S
V24     V36    10.0   .     S
V24     V43    10.0   1_566     S
V24     V7    10.0   1_566     S
V24     V9    10.0   1_565     S
V24     V10    10.0   1_556     S
V24     V22    10.0   1_556     S
V24     V30    10.0   1_655     S
V25     V7    10.0   1_455     S
V25     V19    10.0   1_455     S
V25     V10    10.0   1_455     S
V25     V27    10.0   1_554     S
V25     V26    10.0   .     S
V25     V37    10.0   .     S
V25     V38    10.0   .     S
V25     V41    10.0   .     S
V25     V40    10.0   .     S
V26     V8    10.0   1_455     S
V26     V20    10.0   1_455     S
V26     V11    10.0   1_455     S
V26     V27    10.0   .     S
V26     V38    10.0   .     S
V26     V39    10.0   .     S
V26     V42    10.0   .     S
V26     V41    10.0   .     S
V27     V9    10.0   1_455     S
V27     V21    10.0   1_455     S
V27     V12    10.0   1_455     S
V27     V25    10.0   1_556     S
V27     V39    10.0   .     S
V27     V37    10.0   1_556     S
V27     V40    10.0   1_556     S
V27     V42    10.0   .     S
V28     V10    10.0   1_455     S
V28     V22    10.0   1_455     S
V28     V7    10.0   1_465     S
V28     V30    10.0   1_554     S
V28     V29    10.0   .     S
V28     V40    10.0   .     S
V28     V41    10.0   .     S
V28     V38    10.0   1_565     S
V28     V37    10.0   1_565     S
V29     V11    10.0   1_455     S
V29     V23    10.0   1_455     S
V29     V8    10.0   1_465     S
V29     V30    10.0   .     S
V29     V41    10.0   .     S
V29     V42    10.0   .     S
V29     V39    10.0   1_565     S
V29     V38    10.0   1_565     S
V30     V12    10.0   1_455     S
V30     V24    10.0   1_455     S
V30     V9    10.0   1_465     S
V30     V28    10.0   1_556     S
V30     V42    10.0   .     S
V30     V40    10.0   1_556     S
V30     V37    10.0   1_566     S
V30     V39    10.0   1_565     S
V31     V33    10.0   1_554     S
V31     V32    10.0   .     S
V31     V43    10.0   .     S
V31     V44    10.0   .     S
V31     V47    10.0   .     S
V31     V46    10.0   .     S
V32     V33    10.0   .     S
V32     V44    10.0   .     S
V32     V45    10.0   .     S
V32     V48    10.0   .     S
V32     V47    10.0   .     S
V33     V31    10.0   1_556     S
V33     V45    10.0   .     S
V33     V43    10.0   1_556     S
V33     V46    10.0   1_556     S
V33     V48    10.0   .     S
V34     V1    10.0   1_565     S
V34     V36    10.0   1_554     S
V34     V35    10.0   .     S
V34     V46    10.0   .     S
V34     V47    10.0   .     S
V34     V44    10.0   1_565     S
V34     V43    10.0   1_565     S
V35     V2    10.0   1_565     S
V35     V36    10.0   .     S
V35     V47    10.0   .     S
V35     V48    10.0   .     S
V35     V45    10.0   1_565     S
V35     V44    10.0   1_565     S
V36     V3    10.0   1_565     S
V36     V34    10.0   1_556     S
V36     V48    10.0   .     S
V36     V46    10.0   1_556     S
V36     V43    10.0   1_566     S
V36     V45    10.0   1_565     S
V37     V15    10.0   1_554     S
V37     V18    10.0   1_544     S
V37     V7    10.0   1_455     S
V37     V27    10.0   1_554     S
V37     V38    10.0   .     S
V37     V39    10.0   1_554     S
V37     V30    10.0   1_544     S
V37     V28    10.0   1_545     S
V38     V16    10.0   1_545     S
V38     V8    10.0   1_455     S
V38     V39    10.0   .     S
V38     V28    10.0   1_545     S
V38     V29    10.0   1_545     S
V39     V17    10.0   1_545     S
V39     V9    10.0   1_455     S
V39     V37    10.0   1_556     S
V39     V29    10.0   1_545     S
V39     V30    10.0   1_545     S
V40     V18    10.0   1_554     S
V40     V15    10.0   1_554     S
V40     V10    10.0   1_455     S
V40     V30    10.0   1_554     S
V40     V41    10.0   .     S
V40     V42    10.0   1_554     S
V40     V27    10.0   1_554     S
V41     V11    10.0   1_455     S
V41     V42    10.0   .     S
V42     V12    10.0   1_455     S
V42     V40    10.0   1_556     S
V43     V21    10.0   1_554     S
V43     V24    10.0   1_544     S
V43     V33    10.0   1_554     S
V43     V44    10.0   .     S
V43     V45    10.0   1_554     S
V43     V36    10.0   1_544     S
V43     V34    10.0   1_545     S
V44     V22    10.0   1_545     S
V44     V45    10.0   .     S
V44     V34    10.0   1_545     S
V44     V35    10.0   1_545     S
V45     V23    10.0   1_545     S
V45     V43    10.0   1_556     S
V45     V35    10.0   1_545     S
V45     V36    10.0   1_545     S
V46     V24    10.0   1_554     S
V46     V21    10.0   1_554     S
V46     V36    10.0   1_554     S
V46     V47    10.0   .     S
V46     V48    10.0   1_554     S
V46     V33    10.0   1_554     S
V47     V48    10.0   .     S
V48     V46    10.0   1_556     S
