data_tcj
_audit_creation_date              2019-12-31
_audit_creation_method            'Pymatgen'
_symmetry_space_group_name_H-M    'P1'
_symmetry_Int_Tables_number       1
loop_
_symmetry_equiv_pos_as_xyz
  x,y,z
_cell_length_a                    30.0
_cell_length_b                    30.0
_cell_length_c                    32.6599
_cell_angle_alpha                 90.0
_cell_angle_beta                 90.0
_cell_angle_gamma                 120.0
loop_
_atom_site_label
_atom_site_type_symbol
_atom_site_fract_x
_atom_site_fract_y
_atom_site_fract_z
Er1     Er     0.2222   0.1111   0.25
Er2     Er     0.2222   0.4444   0.25
Er3     Er     0.2222   0.7778   0.25
Er4     Er     0.5556   0.1111   0.25
Er5     Er     0.5556   0.4444   0.25
Er6     Er     0.5556   0.7778   0.25
Er7     Er     0.8889   0.1111   0.25
Er8     Er     0.8889   0.4444   0.25
Er9     Er     0.8889   0.7778   0.25
Er10     Er     0.1111   0.2222   0.75
Er11     Er     0.1111   0.5556   0.75
Er12     Er     0.1111   0.8889   0.75
Er13     Er     0.4444   0.2222   0.75
Er14     Er     0.4444   0.5556   0.75
Er15     Er     0.4444   0.8889   0.75
Er16     Er     0.7778   0.2222   0.75
Er17     Er     0.7778   0.5556   0.75
Er18     Er     0.7778   0.8889   0.75
V19     V     0.0   0.0   0.0
V20     V     1.0   0.3333   0.0
V21     V     1.0   0.6667   0.0
V22     V     0.3333   0.0   0.0
V23     V     0.3333   0.3333   0.0
V24     V     0.3333   0.6667   0.0
V25     V     0.6667   0.0   0.0
V26     V     0.6667   0.3333   0.0
V27     V     0.6667   0.6667   0.0
V28     V     0.0   0.0   0.5
V29     V     1.0   0.3333   0.5
V30     V     1.0   0.6667   0.5
V31     V     0.3333   0.0   0.5
V32     V     0.3333   0.3333   0.5
V33     V     0.3333   0.6667   0.5
V34     V     0.6667   0.0   0.5
V35     V     0.6667   0.3333   0.5
V36     V     0.6667   0.6667   0.5
loop_
_geom_bond_atom_site_label_1
_geom_bond_atom_site_label_2
_geom_bond_distance
_geom_bond_site_symmetry_2
_ccdc_geom_bond_type
Er1     V28    10.0   .     S
Er1     V31    10.0   .     S
Er1     V32    10.0   .     S
Er1     V19    10.0   .     S
Er1     V22    10.0   .     S
Er1     V23    10.0   .     S
Er1     Er9    10.0   1_445     S
Er1     Er5    10.0   .     S
Er1     Er2    10.0   .     S
Er1     Er3    10.0   1_545     S
Er1     Er7    10.0   1_455     S
Er1     Er4    10.0   .     S
Er2     V29    10.0   1_455     S
Er2     V32    10.0   .     S
Er2     V33    10.0   .     S
Er2     V20    10.0   1_455     S
Er2     V23    10.0   .     S
Er2     V24    10.0   .     S
Er2     Er7    10.0   1_455     S
Er2     Er6    10.0   .     S
Er2     Er3    10.0   .     S
Er2     Er8    10.0   1_455     S
Er2     Er5    10.0   .     S
Er3     V30    10.0   1_455     S
Er3     V33    10.0   .     S
Er3     V31    10.0   1_565     S
Er3     V21    10.0   1_455     S
Er3     V24    10.0   .     S
Er3     V22    10.0   1_565     S
Er3     Er8    10.0   1_455     S
Er3     Er4    10.0   1_565     S
Er3     Er1    10.0   1_565     S
Er3     Er9    10.0   1_455     S
Er3     Er6    10.0   .     S
Er4     V31    10.0   .     S
Er4     V34    10.0   .     S
Er4     V35    10.0   .     S
Er4     V22    10.0   .     S
Er4     V25    10.0   .     S
Er4     V26    10.0   .     S
Er4     Er3    10.0   1_545     S
Er4     Er8    10.0   .     S
Er4     Er5    10.0   .     S
Er4     Er6    10.0   1_545     S
Er4     Er7    10.0   .     S
Er5     V32    10.0   .     S
Er5     V35    10.0   .     S
Er5     V36    10.0   .     S
Er5     V23    10.0   .     S
Er5     V26    10.0   .     S
Er5     V27    10.0   .     S
Er5     Er9    10.0   .     S
Er5     Er6    10.0   .     S
Er5     Er8    10.0   .     S
Er6     V33    10.0   .     S
Er6     V36    10.0   .     S
Er6     V34    10.0   1_565     S
Er6     V24    10.0   .     S
Er6     V27    10.0   .     S
Er6     V25    10.0   1_565     S
Er6     Er7    10.0   1_565     S
Er6     Er4    10.0   1_565     S
Er6     Er9    10.0   .     S
Er7     V34    10.0   .     S
Er7     V28    10.0   1_655     S
Er7     V29    10.0   .     S
Er7     V25    10.0   .     S
Er7     V19    10.0   1_655     S
Er7     V20    10.0   .     S
Er7     Er2    10.0   1_655     S
Er7     Er6    10.0   1_545     S
Er7     Er8    10.0   .     S
Er7     Er9    10.0   1_545     S
Er7     Er1    10.0   1_655     S
Er8     V35    10.0   .     S
Er8     V29    10.0   .     S
Er8     V30    10.0   .     S
Er8     V26    10.0   .     S
Er8     V20    10.0   .     S
Er8     V21    10.0   .     S
Er8     Er3    10.0   1_655     S
Er8     Er9    10.0   .     S
Er8     Er2    10.0   1_655     S
Er9     V36    10.0   .     S
Er9     V30    10.0   .     S
Er9     V28    10.0   1_665     S
Er9     V27    10.0   .     S
Er9     V21    10.0   .     S
Er9     V19    10.0   1_665     S
Er9     Er1    10.0   1_665     S
Er9     Er7    10.0   1_565     S
Er9     Er3    10.0   1_655     S
Er10     V29    10.0   1_455     S
Er10     V28    10.0   .     S
Er10     V32    10.0   .     S
Er10     V20    10.0   1_456     S
Er10     V19    10.0   1_556     S
Er10     V23    10.0   1_556     S
Er10     Er14    10.0   .     S
Er10     Er18    10.0   1_445     S
Er10     Er12    10.0   1_545     S
Er10     Er11    10.0   .     S
Er10     Er13    10.0   .     S
Er10     Er16    10.0   1_455     S
Er11     V30    10.0   1_455     S
Er11     V29    10.0   1_455     S
Er11     V33    10.0   .     S
Er11     V21    10.0   1_456     S
Er11     V20    10.0   1_456     S
Er11     V24    10.0   1_556     S
Er11     Er15    10.0   .     S
Er11     Er16    10.0   1_455     S
Er11     Er12    10.0   .     S
Er11     Er14    10.0   .     S
Er11     Er17    10.0   1_455     S
Er12     V28    10.0   1_565     S
Er12     V30    10.0   1_455     S
Er12     V31    10.0   1_565     S
Er12     V19    10.0   1_566     S
Er12     V21    10.0   1_456     S
Er12     V22    10.0   1_566     S
Er12     Er13    10.0   1_565     S
Er12     Er17    10.0   1_455     S
Er12     Er10    10.0   1_565     S
Er12     Er15    10.0   .     S
Er12     Er18    10.0   1_455     S
Er13     V32    10.0   .     S
Er13     V31    10.0   .     S
Er13     V35    10.0   .     S
Er13     V23    10.0   1_556     S
Er13     V22    10.0   1_556     S
Er13     V26    10.0   1_556     S
Er13     Er12    10.0   1_545     S
Er13     Er17    10.0   .     S
Er13     Er15    10.0   1_545     S
Er13     Er14    10.0   .     S
Er13     Er16    10.0   .     S
Er14     V33    10.0   .     S
Er14     V32    10.0   .     S
Er14     V36    10.0   .     S
Er14     V24    10.0   1_556     S
Er14     V23    10.0   1_556     S
Er14     V27    10.0   1_556     S
Er14     Er18    10.0   .     S
Er14     Er15    10.0   .     S
Er14     Er17    10.0   .     S
Er15     V31    10.0   1_565     S
Er15     V33    10.0   .     S
Er15     V34    10.0   1_565     S
Er15     V22    10.0   1_566     S
Er15     V24    10.0   1_556     S
Er15     V25    10.0   1_566     S
Er15     Er16    10.0   1_565     S
Er15     Er13    10.0   1_565     S
Er15     Er18    10.0   .     S
Er16     V35    10.0   .     S
Er16     V34    10.0   .     S
Er16     V29    10.0   .     S
Er16     V26    10.0   1_556     S
Er16     V25    10.0   1_556     S
Er16     V20    10.0   1_556     S
Er16     Er15    10.0   1_545     S
Er16     Er11    10.0   1_655     S
Er16     Er18    10.0   1_545     S
Er16     Er17    10.0   .     S
Er16     Er10    10.0   1_655     S
Er17     V36    10.0   .     S
Er17     V35    10.0   .     S
Er17     V30    10.0   .     S
Er17     V27    10.0   1_556     S
Er17     V26    10.0   1_556     S
Er17     V21    10.0   1_556     S
Er17     Er12    10.0   1_655     S
Er17     Er18    10.0   .     S
Er17     Er11    10.0   1_655     S
Er18     V34    10.0   1_565     S
Er18     V36    10.0   .     S
Er18     V28    10.0   1_665     S
Er18     V25    10.0   1_566     S
Er18     V27    10.0   1_556     S
Er18     V19    10.0   1_666     S
Er18     Er10    10.0   1_665     S
Er18     Er16    10.0   1_565     S
Er18     Er12    10.0   1_655     S
V19     Er7    10.0   1_455     S
V19     Er9    10.0   1_445     S
V19     Er12    10.0   1_544     S
V19     Er10    10.0   1_554     S
V19     Er18    10.0   1_444     S
V19     V20    10.0   1_455     S
V19     V21    10.0   1_445     S
V19     V23    10.0   .     S
V19     V27    10.0   1_445     S
V19     V22    10.0   .     S
V19     V25    10.0   1_455     S
V20     Er2    10.0   1_655     S
V20     Er10    10.0   1_654     S
V20     Er11    10.0   1_654     S
V20     Er16    10.0   1_554     S
V20     V19    10.0   1_655     S
V20     V21    10.0   .     S
V20     V24    10.0   1_655     S
V20     V25    10.0   .     S
V20     V23    10.0   1_655     S
V20     V26    10.0   .     S
V21     Er3    10.0   1_655     S
V21     Er11    10.0   1_654     S
V21     Er12    10.0   1_654     S
V21     Er17    10.0   1_554     S
V21     V19    10.0   1_665     S
V21     V22    10.0   1_665     S
V21     V26    10.0   .     S
V21     V24    10.0   1_655     S
V21     V27    10.0   .     S
V22     Er3    10.0   1_545     S
V22     Er15    10.0   1_544     S
V22     Er13    10.0   1_554     S
V22     Er12    10.0   1_544     S
V22     V23    10.0   .     S
V22     V24    10.0   1_545     S
V22     V21    10.0   1_445     S
V22     V26    10.0   .     S
V22     V25    10.0   .     S
V23     Er13    10.0   1_554     S
V23     Er14    10.0   1_554     S
V23     Er10    10.0   1_554     S
V23     V24    10.0   .     S
V23     V27    10.0   .     S
V23     V20    10.0   1_455     S
V23     V26    10.0   .     S
V24     Er14    10.0   1_554     S
V24     Er15    10.0   1_554     S
V24     Er11    10.0   1_554     S
V24     V22    10.0   1_565     S
V24     V20    10.0   1_455     S
V24     V25    10.0   1_565     S
V24     V21    10.0   1_455     S
V24     V27    10.0   .     S
V25     Er6    10.0   1_545     S
V25     Er18    10.0   1_544     S
V25     Er16    10.0   1_554     S
V25     Er15    10.0   1_544     S
V25     V26    10.0   .     S
V25     V27    10.0   1_545     S
V25     V24    10.0   1_545     S
V25     V19    10.0   1_655     S
V26     Er16    10.0   1_554     S
V26     Er17    10.0   1_554     S
V26     Er13    10.0   1_554     S
V26     V27    10.0   .     S
V27     Er17    10.0   1_554     S
V27     Er18    10.0   1_554     S
V27     Er14    10.0   1_554     S
V27     V25    10.0   1_565     S
V27     V19    10.0   1_665     S
V28     Er7    10.0   1_455     S
V28     Er9    10.0   1_445     S
V28     Er12    10.0   1_545     S
V28     Er18    10.0   1_445     S
V28     V31    10.0   .     S
V28     V34    10.0   1_455     S
V28     V29    10.0   1_455     S
V28     V30    10.0   1_445     S
V28     V32    10.0   .     S
V28     V36    10.0   1_445     S
V29     Er2    10.0   1_655     S
V29     Er10    10.0   1_655     S
V29     Er11    10.0   1_655     S
V29     V32    10.0   1_655     S
V29     V35    10.0   .     S
V29     V28    10.0   1_655     S
V29     V30    10.0   .     S
V29     V33    10.0   1_655     S
V29     V34    10.0   .     S
V30     Er3    10.0   1_655     S
V30     Er11    10.0   1_655     S
V30     Er12    10.0   1_655     S
V30     V33    10.0   1_655     S
V30     V36    10.0   .     S
V30     V28    10.0   1_665     S
V30     V31    10.0   1_665     S
V30     V35    10.0   .     S
V31     Er3    10.0   1_545     S
V31     Er15    10.0   1_545     S
V31     Er12    10.0   1_545     S
V31     V34    10.0   .     S
V31     V32    10.0   .     S
V31     V33    10.0   1_545     S
V31     V30    10.0   1_445     S
V31     V35    10.0   .     S
V32     V29    10.0   1_455     S
V32     V35    10.0   .     S
V32     V33    10.0   .     S
V32     V36    10.0   .     S
V33     V30    10.0   1_455     S
V33     V36    10.0   .     S
V33     V31    10.0   1_565     S
V33     V29    10.0   1_455     S
V33     V34    10.0   1_565     S
V34     Er6    10.0   1_545     S
V34     Er18    10.0   1_545     S
V34     Er15    10.0   1_545     S
V34     V28    10.0   1_655     S
V34     V35    10.0   .     S
V34     V36    10.0   1_545     S
V34     V33    10.0   1_545     S
V35     V36    10.0   .     S
V36     V34    10.0   1_565     S
V36     V28    10.0   1_665     S
