data_tck
_audit_creation_date              2019-12-31
_audit_creation_method            'Pymatgen'
_symmetry_space_group_name_H-M    'P1'
_symmetry_Int_Tables_number       1
loop_
_symmetry_equiv_pos_as_xyz
  x,y,z
_cell_length_a                    30.0
_cell_length_b                    30.0
_cell_length_c                    48.9901
_cell_angle_alpha                 90.0
_cell_angle_beta                 90.0
_cell_angle_gamma                 120.0
loop_
_atom_site_label
_atom_site_type_symbol
_atom_site_fract_x
_atom_site_fract_y
_atom_site_fract_z
Er1     Er     0.1111   0.2222   0.4167
Er2     Er     0.1111   0.5556   0.4167
Er3     Er     0.1111   0.8889   0.4167
Er4     Er     0.4444   0.2222   0.4167
Er5     Er     0.4444   0.5556   0.4167
Er6     Er     0.4444   0.8889   0.4167
Er7     Er     0.7778   0.2222   0.4167
Er8     Er     0.7778   0.5556   0.4167
Er9     Er     0.7778   0.8889   0.4167
Er10     Er     0.2222   0.1111   0.5833
Er11     Er     0.2222   0.4444   0.5833
Er12     Er     0.2222   0.7778   0.5833
Er13     Er     0.5556   0.1111   0.5833
Er14     Er     0.5556   0.4444   0.5833
Er15     Er     0.5556   0.7778   0.5833
Er16     Er     0.8889   0.1111   0.5833
Er17     Er     0.8889   0.4444   0.5833
Er18     Er     0.8889   0.7778   0.5833
V19     V     0.0   0.0   0.25
V20     V     1.0   0.3333   0.25
V21     V     1.0   0.6667   0.25
V22     V     0.3333   0.0   0.25
V23     V     0.3333   0.3333   0.25
V24     V     0.3333   0.6667   0.25
V25     V     0.6667   0.0   0.25
V26     V     0.6667   0.3333   0.25
V27     V     0.6667   0.6667   0.25
Er28     Er     0.2222   0.1111   0.9167
Er29     Er     0.2222   0.4444   0.9167
Er30     Er     0.2222   0.7778   0.9167
Er31     Er     0.5556   0.1111   0.9167
Er32     Er     0.5556   0.4444   0.9167
Er33     Er     0.5556   0.7778   0.9167
Er34     Er     0.8889   0.1111   0.9167
Er35     Er     0.8889   0.4444   0.9167
Er36     Er     0.8889   0.7778   0.9167
Er37     Er     0.1111   0.2222   0.0833
Er38     Er     0.1111   0.5556   0.0833
Er39     Er     0.1111   0.8889   0.0833
Er40     Er     0.4444   0.2222   0.0833
Er41     Er     0.4444   0.5556   0.0833
Er42     Er     0.4444   0.8889   0.0833
Er43     Er     0.7778   0.2222   0.0833
Er44     Er     0.7778   0.5556   0.0833
Er45     Er     0.7778   0.8889   0.0833
V46     V     0.0   0.0   0.75
V47     V     1.0   0.3333   0.75
V48     V     1.0   0.6667   0.75
V49     V     0.3333   0.0   0.75
V50     V     0.3333   0.3333   0.75
V51     V     0.3333   0.6667   0.75
V52     V     0.6667   0.0   0.75
V53     V     0.6667   0.3333   0.75
V54     V     0.6667   0.6667   0.75
loop_
_geom_bond_atom_site_label_1
_geom_bond_atom_site_label_2
_geom_bond_distance
_geom_bond_site_symmetry_2
_ccdc_geom_bond_type
Er1     Er5    10.0   .     S
Er1     Er9    10.0   1_445     S
Er1     Er3    10.0   1_545     S
Er1     Er2    10.0   .     S
Er1     Er11    10.0   .     S
Er1     Er10    10.0   .     S
Er1     Er4    10.0   .     S
Er1     Er7    10.0   1_455     S
Er1     Er16    10.0   1_455     S
Er1     V19    10.0   .     S
Er1     V20    10.0   1_455     S
Er1     V23    10.0   .     S
Er2     Er6    10.0   .     S
Er2     Er7    10.0   1_455     S
Er2     Er3    10.0   .     S
Er2     Er12    10.0   .     S
Er2     Er11    10.0   .     S
Er2     Er5    10.0   .     S
Er2     Er8    10.0   1_455     S
Er2     Er17    10.0   1_455     S
Er2     V20    10.0   1_455     S
Er2     V21    10.0   1_455     S
Er2     V24    10.0   .     S
Er3     Er4    10.0   1_565     S
Er3     Er8    10.0   1_455     S
Er3     Er1    10.0   1_565     S
Er3     Er10    10.0   1_565     S
Er3     Er12    10.0   .     S
Er3     Er6    10.0   .     S
Er3     Er9    10.0   1_455     S
Er3     Er18    10.0   1_455     S
Er3     V21    10.0   1_455     S
Er3     V19    10.0   1_565     S
Er3     V22    10.0   1_565     S
Er4     Er3    10.0   1_545     S
Er4     Er8    10.0   .     S
Er4     Er6    10.0   1_545     S
Er4     Er5    10.0   .     S
Er4     Er14    10.0   .     S
Er4     Er13    10.0   .     S
Er4     Er7    10.0   .     S
Er4     Er10    10.0   .     S
Er4     V22    10.0   .     S
Er4     V23    10.0   .     S
Er4     V26    10.0   .     S
Er5     Er9    10.0   .     S
Er5     Er6    10.0   .     S
Er5     Er15    10.0   .     S
Er5     Er14    10.0   .     S
Er5     Er8    10.0   .     S
Er5     Er11    10.0   .     S
Er5     V23    10.0   .     S
Er5     V24    10.0   .     S
Er5     V27    10.0   .     S
Er6     Er7    10.0   1_565     S
Er6     Er4    10.0   1_565     S
Er6     Er13    10.0   1_565     S
Er6     Er15    10.0   .     S
Er6     Er9    10.0   .     S
Er6     Er12    10.0   .     S
Er6     V24    10.0   .     S
Er6     V22    10.0   1_565     S
Er6     V25    10.0   1_565     S
Er7     Er6    10.0   1_545     S
Er7     Er2    10.0   1_655     S
Er7     Er9    10.0   1_545     S
Er7     Er8    10.0   .     S
Er7     Er17    10.0   .     S
Er7     Er16    10.0   .     S
Er7     Er1    10.0   1_655     S
Er7     Er13    10.0   .     S
Er7     V25    10.0   .     S
Er7     V26    10.0   .     S
Er7     V20    10.0   .     S
Er8     Er3    10.0   1_655     S
Er8     Er9    10.0   .     S
Er8     Er18    10.0   .     S
Er8     Er17    10.0   .     S
Er8     Er2    10.0   1_655     S
Er8     Er14    10.0   .     S
Er8     V26    10.0   .     S
Er8     V27    10.0   .     S
Er8     V21    10.0   .     S
Er9     Er1    10.0   1_665     S
Er9     Er7    10.0   1_565     S
Er9     Er16    10.0   1_565     S
Er9     Er18    10.0   .     S
Er9     Er3    10.0   1_655     S
Er9     Er15    10.0   .     S
Er9     V27    10.0   .     S
Er9     V25    10.0   1_565     S
Er9     V19    10.0   1_665     S
Er10     Er18    10.0   1_445     S
Er10     Er14    10.0   .     S
Er10     Er3    10.0   1_545     S
Er10     Er16    10.0   1_455     S
Er10     Er13    10.0   .     S
Er10     Er11    10.0   .     S
Er10     Er12    10.0   1_545     S
Er10     V46    10.0   .     S
Er10     V50    10.0   .     S
Er10     V49    10.0   .     S
Er11     Er16    10.0   1_455     S
Er11     Er15    10.0   .     S
Er11     Er17    10.0   1_455     S
Er11     Er14    10.0   .     S
Er11     Er12    10.0   .     S
Er11     V47    10.0   1_455     S
Er11     V51    10.0   .     S
Er11     V50    10.0   .     S
Er12     Er17    10.0   1_455     S
Er12     Er13    10.0   1_565     S
Er12     Er18    10.0   1_455     S
Er12     Er15    10.0   .     S
Er12     Er10    10.0   1_565     S
Er12     V48    10.0   1_455     S
Er12     V49    10.0   1_565     S
Er12     V51    10.0   .     S
Er13     Er12    10.0   1_545     S
Er13     Er17    10.0   .     S
Er13     Er6    10.0   1_545     S
Er13     Er16    10.0   .     S
Er13     Er14    10.0   .     S
Er13     Er15    10.0   1_545     S
Er13     V49    10.0   .     S
Er13     V53    10.0   .     S
Er13     V52    10.0   .     S
Er14     Er18    10.0   .     S
Er14     Er17    10.0   .     S
Er14     Er15    10.0   .     S
Er14     V50    10.0   .     S
Er14     V54    10.0   .     S
Er14     V53    10.0   .     S
Er15     Er16    10.0   1_565     S
Er15     Er18    10.0   .     S
Er15     Er13    10.0   1_565     S
Er15     V51    10.0   .     S
Er15     V52    10.0   1_565     S
Er15     V54    10.0   .     S
Er16     Er11    10.0   1_655     S
Er16     Er15    10.0   1_545     S
Er16     Er9    10.0   1_545     S
Er16     Er10    10.0   1_655     S
Er16     Er1    10.0   1_655     S
Er16     Er17    10.0   .     S
Er16     Er18    10.0   1_545     S
Er16     V52    10.0   .     S
Er16     V47    10.0   .     S
Er16     V46    10.0   1_655     S
Er17     Er12    10.0   1_655     S
Er17     Er11    10.0   1_655     S
Er17     Er2    10.0   1_655     S
Er17     Er18    10.0   .     S
Er17     V53    10.0   .     S
Er17     V48    10.0   .     S
Er17     V47    10.0   .     S
Er18     Er10    10.0   1_665     S
Er18     Er12    10.0   1_655     S
Er18     Er3    10.0   1_655     S
Er18     Er16    10.0   1_565     S
Er18     V54    10.0   .     S
Er18     V46    10.0   1_665     S
Er18     V48    10.0   .     S
V19     V20    10.0   1_455     S
V19     V21    10.0   1_445     S
V19     Er37    10.0   .     S
V19     Er39    10.0   1_545     S
V19     V23    10.0   .     S
V19     V27    10.0   1_445     S
V19     V22    10.0   .     S
V19     V25    10.0   1_455     S
V19     Er45    10.0   1_445     S
V19     Er3    10.0   1_545     S
V19     Er9    10.0   1_445     S
V20     V19    10.0   1_655     S
V20     V21    10.0   .     S
V20     Er38    10.0   1_655     S
V20     Er2    10.0   1_655     S
V20     Er37    10.0   1_655     S
V20     V24    10.0   1_655     S
V20     V25    10.0   .     S
V20     V23    10.0   1_655     S
V20     V26    10.0   .     S
V20     Er43    10.0   .     S
V20     Er1    10.0   1_655     S
V21     V19    10.0   1_665     S
V21     Er39    10.0   1_655     S
V21     Er3    10.0   1_655     S
V21     Er38    10.0   1_655     S
V21     V22    10.0   1_665     S
V21     V26    10.0   .     S
V21     V24    10.0   1_655     S
V21     V27    10.0   .     S
V21     Er44    10.0   .     S
V21     Er2    10.0   1_655     S
V22     V23    10.0   .     S
V22     V24    10.0   1_545     S
V22     Er40    10.0   .     S
V22     Er42    10.0   1_545     S
V22     V21    10.0   1_445     S
V22     V26    10.0   .     S
V22     V25    10.0   .     S
V22     Er39    10.0   1_545     S
V22     Er6    10.0   1_545     S
V22     Er3    10.0   1_545     S
V23     V24    10.0   .     S
V23     Er41    10.0   .     S
V23     Er40    10.0   .     S
V23     V27    10.0   .     S
V23     V20    10.0   1_455     S
V23     V26    10.0   .     S
V23     Er37    10.0   .     S
V24     V22    10.0   1_565     S
V24     Er42    10.0   .     S
V24     Er41    10.0   .     S
V24     V20    10.0   1_455     S
V24     V25    10.0   1_565     S
V24     V21    10.0   1_455     S
V24     V27    10.0   .     S
V24     Er38    10.0   .     S
V25     V26    10.0   .     S
V25     V27    10.0   1_545     S
V25     Er43    10.0   .     S
V25     Er45    10.0   1_545     S
V25     V24    10.0   1_545     S
V25     V19    10.0   1_655     S
V25     Er42    10.0   1_545     S
V25     Er9    10.0   1_545     S
V25     Er6    10.0   1_545     S
V26     V27    10.0   .     S
V26     Er44    10.0   .     S
V26     Er43    10.0   .     S
V26     Er40    10.0   .     S
V27     V25    10.0   1_565     S
V27     Er45    10.0   .     S
V27     Er44    10.0   .     S
V27     V19    10.0   1_665     S
V27     Er41    10.0   .     S
Er28     Er36    10.0   1_445     S
Er28     Er32    10.0   .     S
Er28     Er34    10.0   1_455     S
Er28     Er31    10.0   .     S
Er28     Er37    10.0   1_556     S
Er28     Er39    10.0   1_546     S
Er28     Er40    10.0   1_556     S
Er28     Er29    10.0   .     S
Er28     Er30    10.0   1_545     S
Er28     V46    10.0   .     S
Er28     V49    10.0   .     S
Er28     V50    10.0   .     S
Er29     Er34    10.0   1_455     S
Er29     Er33    10.0   .     S
Er29     Er35    10.0   1_455     S
Er29     Er32    10.0   .     S
Er29     Er38    10.0   1_556     S
Er29     Er37    10.0   1_556     S
Er29     Er41    10.0   1_556     S
Er29     Er30    10.0   .     S
Er29     V47    10.0   1_455     S
Er29     V50    10.0   .     S
Er29     V51    10.0   .     S
Er30     Er35    10.0   1_455     S
Er30     Er31    10.0   1_565     S
Er30     Er36    10.0   1_455     S
Er30     Er33    10.0   .     S
Er30     Er39    10.0   1_556     S
Er30     Er38    10.0   1_556     S
Er30     Er42    10.0   1_556     S
Er30     Er28    10.0   1_565     S
Er30     V48    10.0   1_455     S
Er30     V51    10.0   .     S
Er30     V49    10.0   1_565     S
Er31     Er30    10.0   1_545     S
Er31     Er35    10.0   .     S
Er31     Er34    10.0   .     S
Er31     Er40    10.0   1_556     S
Er31     Er42    10.0   1_546     S
Er31     Er43    10.0   1_556     S
Er31     Er32    10.0   .     S
Er31     Er33    10.0   1_545     S
Er31     V49    10.0   .     S
Er31     V52    10.0   .     S
Er31     V53    10.0   .     S
Er32     Er36    10.0   .     S
Er32     Er35    10.0   .     S
Er32     Er41    10.0   1_556     S
Er32     Er40    10.0   1_556     S
Er32     Er44    10.0   1_556     S
Er32     Er33    10.0   .     S
Er32     V50    10.0   .     S
Er32     V53    10.0   .     S
Er32     V54    10.0   .     S
Er33     Er34    10.0   1_565     S
Er33     Er36    10.0   .     S
Er33     Er42    10.0   1_556     S
Er33     Er41    10.0   1_556     S
Er33     Er45    10.0   1_556     S
Er33     Er31    10.0   1_565     S
Er33     V51    10.0   .     S
Er33     V54    10.0   .     S
Er33     V52    10.0   1_565     S
Er34     Er29    10.0   1_655     S
Er34     Er33    10.0   1_545     S
Er34     Er28    10.0   1_655     S
Er34     Er43    10.0   1_556     S
Er34     Er45    10.0   1_546     S
Er34     Er37    10.0   1_656     S
Er34     Er35    10.0   .     S
Er34     Er36    10.0   1_545     S
Er34     V52    10.0   .     S
Er34     V46    10.0   1_655     S
Er34     V47    10.0   .     S
Er35     Er30    10.0   1_655     S
Er35     Er29    10.0   1_655     S
Er35     Er44    10.0   1_556     S
Er35     Er43    10.0   1_556     S
Er35     Er38    10.0   1_656     S
Er35     Er36    10.0   .     S
Er35     V53    10.0   .     S
Er35     V47    10.0   .     S
Er35     V48    10.0   .     S
Er36     Er28    10.0   1_665     S
Er36     Er30    10.0   1_655     S
Er36     Er45    10.0   1_556     S
Er36     Er44    10.0   1_556     S
Er36     Er39    10.0   1_656     S
Er36     Er34    10.0   1_565     S
Er36     V54    10.0   .     S
Er36     V48    10.0   .     S
Er36     V46    10.0   1_665     S
Er37     V20    10.0   1_455     S
Er37     Er41    10.0   .     S
Er37     Er45    10.0   1_445     S
Er37     Er39    10.0   1_545     S
Er37     Er38    10.0   .     S
Er37     Er28    10.0   1_554     S
Er37     Er29    10.0   1_554     S
Er37     Er34    10.0   1_454     S
Er37     Er40    10.0   .     S
Er37     Er43    10.0   1_455     S
Er38     V20    10.0   1_455     S
Er38     V21    10.0   1_455     S
Er38     Er42    10.0   .     S
Er38     Er43    10.0   1_455     S
Er38     Er39    10.0   .     S
Er38     Er29    10.0   1_554     S
Er38     Er30    10.0   1_554     S
Er38     Er35    10.0   1_454     S
Er38     Er41    10.0   .     S
Er38     Er44    10.0   1_455     S
Er39     V21    10.0   1_455     S
Er39     V19    10.0   1_565     S
Er39     V22    10.0   1_565     S
Er39     Er40    10.0   1_565     S
Er39     Er44    10.0   1_455     S
Er39     Er37    10.0   1_565     S
Er39     Er30    10.0   1_554     S
Er39     Er28    10.0   1_564     S
Er39     Er36    10.0   1_454     S
Er39     Er42    10.0   .     S
Er39     Er45    10.0   1_455     S
Er40     Er39    10.0   1_545     S
Er40     Er44    10.0   .     S
Er40     Er42    10.0   1_545     S
Er40     Er41    10.0   .     S
Er40     Er31    10.0   1_554     S
Er40     Er32    10.0   1_554     S
Er40     Er28    10.0   1_554     S
Er40     Er43    10.0   .     S
Er41     Er45    10.0   .     S
Er41     Er42    10.0   .     S
Er41     Er32    10.0   1_554     S
Er41     Er33    10.0   1_554     S
Er41     Er29    10.0   1_554     S
Er41     Er44    10.0   .     S
Er42     V22    10.0   1_565     S
Er42     V25    10.0   1_565     S
Er42     Er43    10.0   1_565     S
Er42     Er40    10.0   1_565     S
Er42     Er33    10.0   1_554     S
Er42     Er31    10.0   1_564     S
Er42     Er30    10.0   1_554     S
Er42     Er45    10.0   .     S
Er43     Er42    10.0   1_545     S
Er43     Er38    10.0   1_655     S
Er43     Er45    10.0   1_545     S
Er43     Er44    10.0   .     S
Er43     Er34    10.0   1_554     S
Er43     Er35    10.0   1_554     S
Er43     Er31    10.0   1_554     S
Er43     Er37    10.0   1_655     S
Er44     Er39    10.0   1_655     S
Er44     Er45    10.0   .     S
Er44     Er35    10.0   1_554     S
Er44     Er36    10.0   1_554     S
Er44     Er32    10.0   1_554     S
Er44     Er38    10.0   1_655     S
Er45     V25    10.0   1_565     S
Er45     V19    10.0   1_665     S
Er45     Er37    10.0   1_665     S
Er45     Er43    10.0   1_565     S
Er45     Er36    10.0   1_554     S
Er45     Er34    10.0   1_564     S
Er45     Er33    10.0   1_554     S
Er45     Er39    10.0   1_655     S
V46     V49    10.0   .     S
V46     V52    10.0   1_455     S
V46     V50    10.0   .     S
V46     V54    10.0   1_445     S
V46     Er34    10.0   1_455     S
V46     V47    10.0   1_455     S
V46     V48    10.0   1_445     S
V46     Er36    10.0   1_445     S
V46     Er18    10.0   1_445     S
V46     Er16    10.0   1_455     S
V47     V50    10.0   1_655     S
V47     V53    10.0   .     S
V47     Er29    10.0   1_655     S
V47     V51    10.0   1_655     S
V47     V52    10.0   .     S
V47     V46    10.0   1_655     S
V47     V48    10.0   .     S
V47     Er11    10.0   1_655     S
V48     V51    10.0   1_655     S
V48     V54    10.0   .     S
V48     Er30    10.0   1_655     S
V48     V49    10.0   1_665     S
V48     V53    10.0   .     S
V48     V46    10.0   1_665     S
V48     Er12    10.0   1_655     S
V49     V52    10.0   .     S
V49     V48    10.0   1_445     S
V49     V53    10.0   .     S
V49     V50    10.0   .     S
V49     V51    10.0   1_545     S
V49     Er30    10.0   1_545     S
V49     Er12    10.0   1_545     S
V50     V47    10.0   1_455     S
V50     V53    10.0   .     S
V50     V54    10.0   .     S
V50     V51    10.0   .     S
V51     V48    10.0   1_455     S
V51     V54    10.0   .     S
V51     V47    10.0   1_455     S
V51     V52    10.0   1_565     S
V51     V49    10.0   1_565     S
V52     V46    10.0   1_655     S
V52     V51    10.0   1_545     S
V52     V53    10.0   .     S
V52     V54    10.0   1_545     S
V52     Er33    10.0   1_545     S
V52     Er15    10.0   1_545     S
V53     V54    10.0   .     S
V54     V46    10.0   1_665     S
V54     V52    10.0   1_565     S
