data_tcl
_audit_creation_date              2019-12-31
_audit_creation_method            'Pymatgen'
_symmetry_space_group_name_H-M    'P1'
_symmetry_Int_Tables_number       1
loop_
_symmetry_equiv_pos_as_xyz
  x,y,z
_cell_length_a                    30.0
_cell_length_b                    30.0
_cell_length_c                    73.4844
_cell_angle_alpha                 90.0
_cell_angle_beta                 90.0
_cell_angle_gamma                 120.0
loop_
_atom_site_label
_atom_site_type_symbol
_atom_site_fract_x
_atom_site_fract_y
_atom_site_fract_z
Er1     Er     0.0   0.0   0.7778
Er2     Er     1.0   0.3333   0.7778
Er3     Er     1.0   0.6667   0.7778
Er4     Er     0.3333   0.0   0.7778
Er5     Er     0.3333   0.3333   0.7778
Er6     Er     0.3333   0.6667   0.7778
Er7     Er     0.6667   0.0   0.7778
Er8     Er     0.6667   0.3333   0.7778
Er9     Er     0.6667   0.6667   0.7778
Er10     Er     0.1111   0.2222   0.8889
Er11     Er     0.1111   0.5556   0.8889
Er12     Er     0.1111   0.8889   0.8889
Er13     Er     0.4444   0.2222   0.8889
Er14     Er     0.4444   0.5556   0.8889
Er15     Er     0.4444   0.8889   0.8889
Er16     Er     0.7778   0.2222   0.8889
Er17     Er     0.7778   0.5556   0.8889
Er18     Er     0.7778   0.8889   0.8889
V19     V     0.2222   0.1111   0.3333
V20     V     0.2222   0.4444   0.3333
V21     V     0.2222   0.7778   0.3333
V22     V     0.5556   0.1111   0.3333
V23     V     0.5556   0.4444   0.3333
V24     V     0.5556   0.7778   0.3333
V25     V     0.8889   0.1111   0.3333
V26     V     0.8889   0.4444   0.3333
V27     V     0.8889   0.7778   0.3333
Er28     Er     0.1111   0.2222   0.4444
Er29     Er     0.1111   0.5556   0.4444
Er30     Er     0.1111   0.8889   0.4444
Er31     Er     0.4444   0.2222   0.4444
Er32     Er     0.4444   0.5556   0.4444
Er33     Er     0.4444   0.8889   0.4444
Er34     Er     0.7778   0.2222   0.4444
Er35     Er     0.7778   0.5556   0.4444
Er36     Er     0.7778   0.8889   0.4444
Er37     Er     0.2222   0.1111   0.5556
Er38     Er     0.2222   0.4444   0.5556
Er39     Er     0.2222   0.7778   0.5556
Er40     Er     0.5556   0.1111   0.5556
Er41     Er     0.5556   0.4444   0.5556
Er42     Er     0.5556   0.7778   0.5556
Er43     Er     0.8889   0.1111   0.5556
Er44     Er     0.8889   0.4444   0.5556
Er45     Er     0.8889   0.7778   0.5556
V46     V     0.1111   0.2222   0.6667
V47     V     0.1111   0.5556   0.6667
V48     V     0.1111   0.8889   0.6667
V49     V     0.4444   0.2222   0.6667
V50     V     0.4444   0.5556   0.6667
V51     V     0.4444   0.8889   0.6667
V52     V     0.7778   0.2222   0.6667
V53     V     0.7778   0.5556   0.6667
V54     V     0.7778   0.8889   0.6667
Er55     Er     0.2222   0.1111   0.1111
Er56     Er     0.2222   0.4444   0.1111
Er57     Er     0.2222   0.7778   0.1111
Er58     Er     0.5556   0.1111   0.1111
Er59     Er     0.5556   0.4444   0.1111
Er60     Er     0.5556   0.7778   0.1111
Er61     Er     0.8889   0.1111   0.1111
Er62     Er     0.8889   0.4444   0.1111
Er63     Er     0.8889   0.7778   0.1111
Er64     Er     0.0   0.0   0.2222
Er65     Er     1.0   0.3333   0.2222
Er66     Er     1.0   0.6667   0.2222
Er67     Er     0.3333   0.0   0.2222
Er68     Er     0.3333   0.3333   0.2222
Er69     Er     0.3333   0.6667   0.2222
Er70     Er     0.6667   0.0   0.2222
Er71     Er     0.6667   0.3333   0.2222
Er72     Er     0.6667   0.6667   0.2222
V73     V     0.0   0.0   0.0
V74     V     1.0   0.3333   0.0
V75     V     1.0   0.6667   0.0
V76     V     0.3333   0.0   0.0
V77     V     0.3333   0.3333   0.0
V78     V     0.3333   0.6667   0.0
V79     V     0.6667   0.0   0.0
V80     V     0.6667   0.3333   0.0
V81     V     0.6667   0.6667   0.0
loop_
_geom_bond_atom_site_label_1
_geom_bond_atom_site_label_2
_geom_bond_distance
_geom_bond_site_symmetry_2
_ccdc_geom_bond_type
Er1     Er18    10.0   1_445     S
Er1     Er4    10.0   .     S
Er1     Er7    10.0   1_455     S
Er1     Er12    10.0   1_545     S
Er1     Er10    10.0   .     S
Er1     Er2    10.0   1_455     S
Er1     Er3    10.0   1_445     S
Er1     Er5    10.0   .     S
Er1     Er9    10.0   1_445     S
Er1     V48    10.0   1_545     S
Er1     V46    10.0   .     S
Er1     V54    10.0   1_445     S
Er2     Er16    10.0   .     S
Er2     Er5    10.0   1_655     S
Er2     Er8    10.0   .     S
Er2     Er10    10.0   1_655     S
Er2     Er11    10.0   1_655     S
Er2     Er1    10.0   1_655     S
Er2     Er3    10.0   .     S
Er2     Er6    10.0   1_655     S
Er2     Er7    10.0   .     S
Er2     V46    10.0   1_655     S
Er2     V47    10.0   1_655     S
Er2     V52    10.0   .     S
Er3     Er17    10.0   .     S
Er3     Er6    10.0   1_655     S
Er3     Er9    10.0   .     S
Er3     Er11    10.0   1_655     S
Er3     Er12    10.0   1_655     S
Er3     Er1    10.0   1_665     S
Er3     Er4    10.0   1_665     S
Er3     Er8    10.0   .     S
Er3     V47    10.0   1_655     S
Er3     V48    10.0   1_655     S
Er3     V53    10.0   .     S
Er4     Er12    10.0   1_545     S
Er4     Er7    10.0   .     S
Er4     Er15    10.0   1_545     S
Er4     Er13    10.0   .     S
Er4     Er5    10.0   .     S
Er4     Er6    10.0   1_545     S
Er4     Er3    10.0   1_445     S
Er4     Er8    10.0   .     S
Er4     V51    10.0   1_545     S
Er4     V49    10.0   .     S
Er4     V48    10.0   1_545     S
Er5     Er10    10.0   .     S
Er5     Er2    10.0   1_455     S
Er5     Er8    10.0   .     S
Er5     Er13    10.0   .     S
Er5     Er14    10.0   .     S
Er5     Er6    10.0   .     S
Er5     Er9    10.0   .     S
Er5     V49    10.0   .     S
Er5     V50    10.0   .     S
Er5     V46    10.0   .     S
Er6     Er11    10.0   .     S
Er6     Er3    10.0   1_455     S
Er6     Er9    10.0   .     S
Er6     Er14    10.0   .     S
Er6     Er15    10.0   .     S
Er6     Er4    10.0   1_565     S
Er6     Er2    10.0   1_455     S
Er6     Er7    10.0   1_565     S
Er6     V50    10.0   .     S
Er6     V51    10.0   .     S
Er6     V47    10.0   .     S
Er7     Er15    10.0   1_545     S
Er7     Er1    10.0   1_655     S
Er7     Er18    10.0   1_545     S
Er7     Er16    10.0   .     S
Er7     Er8    10.0   .     S
Er7     Er9    10.0   1_545     S
Er7     Er6    10.0   1_545     S
Er7     V54    10.0   1_545     S
Er7     V52    10.0   .     S
Er7     V51    10.0   1_545     S
Er8     Er13    10.0   .     S
Er8     Er16    10.0   .     S
Er8     Er17    10.0   .     S
Er8     Er9    10.0   .     S
Er8     V52    10.0   .     S
Er8     V53    10.0   .     S
Er8     V49    10.0   .     S
Er9     Er14    10.0   .     S
Er9     Er17    10.0   .     S
Er9     Er18    10.0   .     S
Er9     Er7    10.0   1_565     S
Er9     Er1    10.0   1_665     S
Er9     V53    10.0   .     S
Er9     V54    10.0   .     S
Er9     V50    10.0   .     S
Er10     Er2    10.0   1_455     S
Er10     Er12    10.0   1_545     S
Er10     Er11    10.0   .     S
Er10     Er14    10.0   .     S
Er10     Er18    10.0   1_445     S
Er10     Er13    10.0   .     S
Er10     Er16    10.0   1_455     S
Er10     V74    10.0   1_456     S
Er10     V73    10.0   1_556     S
Er10     V77    10.0   1_556     S
Er11     Er3    10.0   1_455     S
Er11     Er2    10.0   1_455     S
Er11     Er12    10.0   .     S
Er11     Er15    10.0   .     S
Er11     Er16    10.0   1_455     S
Er11     Er14    10.0   .     S
Er11     Er17    10.0   1_455     S
Er11     V75    10.0   1_456     S
Er11     V74    10.0   1_456     S
Er11     V78    10.0   1_556     S
Er12     Er4    10.0   1_565     S
Er12     Er1    10.0   1_565     S
Er12     Er3    10.0   1_455     S
Er12     Er10    10.0   1_565     S
Er12     Er13    10.0   1_565     S
Er12     Er17    10.0   1_455     S
Er12     Er15    10.0   .     S
Er12     Er18    10.0   1_455     S
Er12     V73    10.0   1_566     S
Er12     V75    10.0   1_456     S
Er12     V76    10.0   1_566     S
Er13     Er15    10.0   1_545     S
Er13     Er14    10.0   .     S
Er13     Er12    10.0   1_545     S
Er13     Er17    10.0   .     S
Er13     Er16    10.0   .     S
Er13     V77    10.0   1_556     S
Er13     V76    10.0   1_556     S
Er13     V80    10.0   1_556     S
Er14     Er15    10.0   .     S
Er14     Er18    10.0   .     S
Er14     Er17    10.0   .     S
Er14     V78    10.0   1_556     S
Er14     V77    10.0   1_556     S
Er14     V81    10.0   1_556     S
Er15     Er7    10.0   1_565     S
Er15     Er4    10.0   1_565     S
Er15     Er13    10.0   1_565     S
Er15     Er16    10.0   1_565     S
Er15     Er18    10.0   .     S
Er15     V76    10.0   1_566     S
Er15     V78    10.0   1_556     S
Er15     V79    10.0   1_566     S
Er16     Er18    10.0   1_545     S
Er16     Er17    10.0   .     S
Er16     Er15    10.0   1_545     S
Er16     Er11    10.0   1_655     S
Er16     Er10    10.0   1_655     S
Er16     V80    10.0   1_556     S
Er16     V79    10.0   1_556     S
Er16     V74    10.0   1_556     S
Er17     Er18    10.0   .     S
Er17     Er12    10.0   1_655     S
Er17     Er11    10.0   1_655     S
Er17     V81    10.0   1_556     S
Er17     V80    10.0   1_556     S
Er17     V75    10.0   1_556     S
Er18     Er1    10.0   1_665     S
Er18     Er7    10.0   1_565     S
Er18     Er16    10.0   1_565     S
Er18     Er10    10.0   1_665     S
Er18     Er12    10.0   1_655     S
Er18     V79    10.0   1_566     S
Er18     V81    10.0   1_556     S
Er18     V73    10.0   1_666     S
V19     V25    10.0   1_455     S
V19     V22    10.0   .     S
V19     V27    10.0   1_445     S
V19     V23    10.0   .     S
V19     V20    10.0   .     S
V19     V21    10.0   1_545     S
V19     Er30    10.0   1_545     S
V19     Er31    10.0   .     S
V19     Er28    10.0   .     S
V19     Er67    10.0   .     S
V19     Er68    10.0   .     S
V19     Er64    10.0   .     S
V20     V26    10.0   1_455     S
V20     V23    10.0   .     S
V20     V25    10.0   1_455     S
V20     V24    10.0   .     S
V20     V21    10.0   .     S
V20     Er28    10.0   .     S
V20     Er32    10.0   .     S
V20     Er29    10.0   .     S
V20     Er68    10.0   .     S
V20     Er69    10.0   .     S
V20     Er65    10.0   1_455     S
V21     V27    10.0   1_455     S
V21     V24    10.0   .     S
V21     V26    10.0   1_455     S
V21     V22    10.0   1_565     S
V21     V19    10.0   1_565     S
V21     Er29    10.0   .     S
V21     Er33    10.0   .     S
V21     Er30    10.0   .     S
V21     Er69    10.0   .     S
V21     Er67    10.0   1_565     S
V21     Er66    10.0   1_455     S
V22     V25    10.0   .     S
V22     V21    10.0   1_545     S
V22     V26    10.0   .     S
V22     V23    10.0   .     S
V22     V24    10.0   1_545     S
V22     Er33    10.0   1_545     S
V22     Er34    10.0   .     S
V22     Er31    10.0   .     S
V22     Er70    10.0   .     S
V22     Er71    10.0   .     S
V22     Er67    10.0   .     S
V23     V26    10.0   .     S
V23     V27    10.0   .     S
V23     V24    10.0   .     S
V23     Er31    10.0   .     S
V23     Er35    10.0   .     S
V23     Er32    10.0   .     S
V23     Er71    10.0   .     S
V23     Er72    10.0   .     S
V23     Er68    10.0   .     S
V24     V27    10.0   .     S
V24     V25    10.0   1_565     S
V24     V22    10.0   1_565     S
V24     Er32    10.0   .     S
V24     Er36    10.0   .     S
V24     Er33    10.0   .     S
V24     Er72    10.0   .     S
V24     Er70    10.0   1_565     S
V24     Er69    10.0   .     S
V25     V19    10.0   1_655     S
V25     V20    10.0   1_655     S
V25     V24    10.0   1_545     S
V25     V26    10.0   .     S
V25     V27    10.0   1_545     S
V25     Er36    10.0   1_545     S
V25     Er28    10.0   1_655     S
V25     Er34    10.0   .     S
V25     Er64    10.0   1_655     S
V25     Er65    10.0   .     S
V25     Er70    10.0   .     S
V26     V20    10.0   1_655     S
V26     V21    10.0   1_655     S
V26     V27    10.0   .     S
V26     Er34    10.0   .     S
V26     Er29    10.0   1_655     S
V26     Er35    10.0   .     S
V26     Er65    10.0   .     S
V26     Er66    10.0   .     S
V26     Er71    10.0   .     S
V27     V21    10.0   1_655     S
V27     V19    10.0   1_665     S
V27     V25    10.0   1_565     S
V27     Er35    10.0   .     S
V27     Er30    10.0   1_655     S
V27     Er36    10.0   .     S
V27     Er66    10.0   .     S
V27     Er64    10.0   1_665     S
V27     Er72    10.0   .     S
Er28     Er37    10.0   .     S
Er28     Er43    10.0   1_455     S
Er28     Er38    10.0   .     S
Er28     Er31    10.0   .     S
Er28     Er34    10.0   1_455     S
Er28     Er30    10.0   1_545     S
Er28     Er29    10.0   .     S
Er28     Er32    10.0   .     S
Er28     Er36    10.0   1_445     S
Er28     V25    10.0   1_455     S
Er29     Er38    10.0   .     S
Er29     Er44    10.0   1_455     S
Er29     Er39    10.0   .     S
Er29     Er32    10.0   .     S
Er29     Er35    10.0   1_455     S
Er29     Er30    10.0   .     S
Er29     Er33    10.0   .     S
Er29     Er34    10.0   1_455     S
Er29     V26    10.0   1_455     S
Er30     Er39    10.0   .     S
Er30     Er45    10.0   1_455     S
Er30     Er37    10.0   1_565     S
Er30     Er33    10.0   .     S
Er30     Er36    10.0   1_455     S
Er30     Er28    10.0   1_565     S
Er30     Er31    10.0   1_565     S
Er30     Er35    10.0   1_455     S
Er30     V19    10.0   1_565     S
Er30     V27    10.0   1_455     S
Er31     Er40    10.0   .     S
Er31     Er37    10.0   .     S
Er31     Er41    10.0   .     S
Er31     Er34    10.0   .     S
Er31     Er33    10.0   1_545     S
Er31     Er32    10.0   .     S
Er31     Er30    10.0   1_545     S
Er31     Er35    10.0   .     S
Er32     Er41    10.0   .     S
Er32     Er38    10.0   .     S
Er32     Er42    10.0   .     S
Er32     Er35    10.0   .     S
Er32     Er33    10.0   .     S
Er32     Er36    10.0   .     S
Er33     Er42    10.0   .     S
Er33     Er39    10.0   .     S
Er33     Er40    10.0   1_565     S
Er33     Er36    10.0   .     S
Er33     Er31    10.0   1_565     S
Er33     Er34    10.0   1_565     S
Er33     V22    10.0   1_565     S
Er34     Er43    10.0   .     S
Er34     Er40    10.0   .     S
Er34     Er44    10.0   .     S
Er34     Er28    10.0   1_655     S
Er34     Er36    10.0   1_545     S
Er34     Er35    10.0   .     S
Er34     Er33    10.0   1_545     S
Er34     Er29    10.0   1_655     S
Er35     Er44    10.0   .     S
Er35     Er41    10.0   .     S
Er35     Er45    10.0   .     S
Er35     Er29    10.0   1_655     S
Er35     Er36    10.0   .     S
Er35     Er30    10.0   1_655     S
Er36     Er45    10.0   .     S
Er36     Er42    10.0   .     S
Er36     Er43    10.0   1_565     S
Er36     Er30    10.0   1_655     S
Er36     Er34    10.0   1_565     S
Er36     Er28    10.0   1_665     S
Er36     V25    10.0   1_565     S
Er37     Er30    10.0   1_545     S
Er37     Er38    10.0   .     S
Er37     Er39    10.0   1_545     S
Er37     Er45    10.0   1_445     S
Er37     Er41    10.0   .     S
Er37     Er43    10.0   1_455     S
Er37     Er40    10.0   .     S
Er37     V48    10.0   1_545     S
Er37     V49    10.0   .     S
Er37     V46    10.0   .     S
Er38     Er39    10.0   .     S
Er38     Er43    10.0   1_455     S
Er38     Er42    10.0   .     S
Er38     Er44    10.0   1_455     S
Er38     Er41    10.0   .     S
Er38     V46    10.0   .     S
Er38     V50    10.0   .     S
Er38     V47    10.0   .     S
Er39     Er37    10.0   1_565     S
Er39     Er44    10.0   1_455     S
Er39     Er40    10.0   1_565     S
Er39     Er45    10.0   1_455     S
Er39     Er42    10.0   .     S
Er39     V47    10.0   .     S
Er39     V51    10.0   .     S
Er39     V48    10.0   .     S
Er40     Er33    10.0   1_545     S
Er40     Er41    10.0   .     S
Er40     Er42    10.0   1_545     S
Er40     Er39    10.0   1_545     S
Er40     Er44    10.0   .     S
Er40     Er43    10.0   .     S
Er40     V51    10.0   1_545     S
Er40     V52    10.0   .     S
Er40     V49    10.0   .     S
Er41     Er42    10.0   .     S
Er41     Er45    10.0   .     S
Er41     Er44    10.0   .     S
Er41     V49    10.0   .     S
Er41     V53    10.0   .     S
Er41     V50    10.0   .     S
Er42     Er40    10.0   1_565     S
Er42     Er43    10.0   1_565     S
Er42     Er45    10.0   .     S
Er42     V50    10.0   .     S
Er42     V54    10.0   .     S
Er42     V51    10.0   .     S
Er43     Er28    10.0   1_655     S
Er43     Er36    10.0   1_545     S
Er43     Er44    10.0   .     S
Er43     Er45    10.0   1_545     S
Er43     Er38    10.0   1_655     S
Er43     Er42    10.0   1_545     S
Er43     Er37    10.0   1_655     S
Er43     V54    10.0   1_545     S
Er43     V46    10.0   1_655     S
Er43     V52    10.0   .     S
Er44     Er29    10.0   1_655     S
Er44     Er45    10.0   .     S
Er44     Er39    10.0   1_655     S
Er44     Er38    10.0   1_655     S
Er44     V52    10.0   .     S
Er44     V47    10.0   1_655     S
Er44     V53    10.0   .     S
Er45     Er30    10.0   1_655     S
Er45     Er43    10.0   1_565     S
Er45     Er37    10.0   1_665     S
Er45     Er39    10.0   1_655     S
Er45     V53    10.0   .     S
Er45     V48    10.0   1_655     S
Er45     V54    10.0   .     S
V46     Er2    10.0   1_455     S
V46     Er43    10.0   1_455     S
V46     V48    10.0   1_545     S
V46     V47    10.0   .     S
V46     V50    10.0   .     S
V46     V54    10.0   1_445     S
V46     V49    10.0   .     S
V46     V52    10.0   1_455     S
V47     Er3    10.0   1_455     S
V47     Er2    10.0   1_455     S
V47     Er44    10.0   1_455     S
V47     V48    10.0   .     S
V47     V51    10.0   .     S
V47     V52    10.0   1_455     S
V47     V50    10.0   .     S
V47     V53    10.0   1_455     S
V48     Er1    10.0   1_565     S
V48     Er3    10.0   1_455     S
V48     Er4    10.0   1_565     S
V48     Er37    10.0   1_565     S
V48     Er45    10.0   1_455     S
V48     V46    10.0   1_565     S
V48     V49    10.0   1_565     S
V48     V53    10.0   1_455     S
V48     V51    10.0   .     S
V48     V54    10.0   1_455     S
V49     V51    10.0   1_545     S
V49     V50    10.0   .     S
V49     V48    10.0   1_545     S
V49     V53    10.0   .     S
V49     V52    10.0   .     S
V50     V51    10.0   .     S
V50     V54    10.0   .     S
V50     V53    10.0   .     S
V51     Er4    10.0   1_565     S
V51     Er7    10.0   1_565     S
V51     Er40    10.0   1_565     S
V51     V49    10.0   1_565     S
V51     V52    10.0   1_565     S
V51     V54    10.0   .     S
V52     V54    10.0   1_545     S
V52     V53    10.0   .     S
V52     V51    10.0   1_545     S
V52     V47    10.0   1_655     S
V52     V46    10.0   1_655     S
V53     V54    10.0   .     S
V53     V48    10.0   1_655     S
V53     V47    10.0   1_655     S
V54     Er7    10.0   1_565     S
V54     Er1    10.0   1_665     S
V54     Er43    10.0   1_565     S
V54     V52    10.0   1_565     S
V54     V46    10.0   1_665     S
V54     V48    10.0   1_655     S
Er55     Er68    10.0   .     S
Er55     Er67    10.0   .     S
Er55     Er64    10.0   .     S
Er55     Er61    10.0   1_455     S
Er55     Er58    10.0   .     S
Er55     Er56    10.0   .     S
Er55     Er57    10.0   1_545     S
Er55     Er63    10.0   1_445     S
Er55     Er59    10.0   .     S
Er55     V76    10.0   .     S
Er55     V77    10.0   .     S
Er55     V73    10.0   .     S
Er56     Er69    10.0   .     S
Er56     Er68    10.0   .     S
Er56     Er65    10.0   1_455     S
Er56     Er62    10.0   1_455     S
Er56     Er59    10.0   .     S
Er56     Er57    10.0   .     S
Er56     Er61    10.0   1_455     S
Er56     Er60    10.0   .     S
Er56     V77    10.0   .     S
Er56     V78    10.0   .     S
Er56     V74    10.0   1_455     S
Er57     Er67    10.0   1_565     S
Er57     Er69    10.0   .     S
Er57     Er66    10.0   1_455     S
Er57     Er63    10.0   1_455     S
Er57     Er60    10.0   .     S
Er57     Er55    10.0   1_565     S
Er57     Er62    10.0   1_455     S
Er57     Er58    10.0   1_565     S
Er57     V78    10.0   .     S
Er57     V76    10.0   1_565     S
Er57     V75    10.0   1_455     S
Er58     Er71    10.0   .     S
Er58     Er70    10.0   .     S
Er58     Er67    10.0   .     S
Er58     Er61    10.0   .     S
Er58     Er59    10.0   .     S
Er58     Er60    10.0   1_545     S
Er58     Er57    10.0   1_545     S
Er58     Er62    10.0   .     S
Er58     V79    10.0   .     S
Er58     V80    10.0   .     S
Er58     V76    10.0   .     S
Er59     Er72    10.0   .     S
Er59     Er71    10.0   .     S
Er59     Er68    10.0   .     S
Er59     Er62    10.0   .     S
Er59     Er60    10.0   .     S
Er59     Er63    10.0   .     S
Er59     V80    10.0   .     S
Er59     V81    10.0   .     S
Er59     V77    10.0   .     S
Er60     Er70    10.0   1_565     S
Er60     Er72    10.0   .     S
Er60     Er69    10.0   .     S
Er60     Er63    10.0   .     S
Er60     Er58    10.0   1_565     S
Er60     Er61    10.0   1_565     S
Er60     V81    10.0   .     S
Er60     V79    10.0   1_565     S
Er60     V78    10.0   .     S
Er61     Er65    10.0   .     S
Er61     Er64    10.0   1_655     S
Er61     Er70    10.0   .     S
Er61     Er55    10.0   1_655     S
Er61     Er62    10.0   .     S
Er61     Er63    10.0   1_545     S
Er61     Er56    10.0   1_655     S
Er61     Er60    10.0   1_545     S
Er61     V73    10.0   1_655     S
Er61     V74    10.0   .     S
Er61     V79    10.0   .     S
Er62     Er66    10.0   .     S
Er62     Er65    10.0   .     S
Er62     Er71    10.0   .     S
Er62     Er56    10.0   1_655     S
Er62     Er63    10.0   .     S
Er62     Er57    10.0   1_655     S
Er62     V74    10.0   .     S
Er62     V75    10.0   .     S
Er62     V80    10.0   .     S
Er63     Er64    10.0   1_665     S
Er63     Er66    10.0   .     S
Er63     Er72    10.0   .     S
Er63     Er57    10.0   1_655     S
Er63     Er61    10.0   1_565     S
Er63     Er55    10.0   1_665     S
Er63     V75    10.0   .     S
Er63     V73    10.0   1_665     S
Er63     V81    10.0   .     S
Er64     Er63    10.0   1_445     S
Er64     Er61    10.0   1_455     S
Er64     Er65    10.0   1_455     S
Er64     Er66    10.0   1_445     S
Er64     Er68    10.0   .     S
Er64     Er72    10.0   1_445     S
Er64     Er67    10.0   .     S
Er64     Er70    10.0   1_455     S
Er64     V25    10.0   1_455     S
Er64     V27    10.0   1_445     S
Er65     Er56    10.0   1_655     S
Er65     Er64    10.0   1_655     S
Er65     Er66    10.0   .     S
Er65     Er69    10.0   1_655     S
Er65     Er70    10.0   .     S
Er65     Er68    10.0   1_655     S
Er65     Er71    10.0   .     S
Er65     V20    10.0   1_655     S
Er66     Er57    10.0   1_655     S
Er66     Er64    10.0   1_665     S
Er66     Er67    10.0   1_665     S
Er66     Er71    10.0   .     S
Er66     Er69    10.0   1_655     S
Er66     Er72    10.0   .     S
Er66     V21    10.0   1_655     S
Er67     Er57    10.0   1_545     S
Er67     Er68    10.0   .     S
Er67     Er69    10.0   1_545     S
Er67     Er66    10.0   1_445     S
Er67     Er71    10.0   .     S
Er67     Er70    10.0   .     S
Er67     V21    10.0   1_545     S
Er68     Er69    10.0   .     S
Er68     Er72    10.0   .     S
Er68     Er65    10.0   1_455     S
Er68     Er71    10.0   .     S
Er69     Er67    10.0   1_565     S
Er69     Er65    10.0   1_455     S
Er69     Er70    10.0   1_565     S
Er69     Er66    10.0   1_455     S
Er69     Er72    10.0   .     S
Er70     Er60    10.0   1_545     S
Er70     Er71    10.0   .     S
Er70     Er72    10.0   1_545     S
Er70     Er69    10.0   1_545     S
Er70     Er64    10.0   1_655     S
Er70     V24    10.0   1_545     S
Er71     Er72    10.0   .     S
Er72     Er70    10.0   1_565     S
Er72     Er64    10.0   1_665     S
V73     Er12    10.0   1_544     S
V73     Er10    10.0   1_554     S
V73     Er18    10.0   1_444     S
V73     Er61    10.0   1_455     S
V73     Er63    10.0   1_445     S
V73     V74    10.0   1_455     S
V73     V75    10.0   1_445     S
V73     V77    10.0   .     S
V73     V81    10.0   1_445     S
V73     V76    10.0   .     S
V73     V79    10.0   1_455     S
V74     Er10    10.0   1_654     S
V74     Er11    10.0   1_654     S
V74     Er16    10.0   1_554     S
V74     Er56    10.0   1_655     S
V74     V73    10.0   1_655     S
V74     V75    10.0   .     S
V74     V78    10.0   1_655     S
V74     V79    10.0   .     S
V74     V77    10.0   1_655     S
V74     V80    10.0   .     S
V75     Er11    10.0   1_654     S
V75     Er12    10.0   1_654     S
V75     Er17    10.0   1_554     S
V75     Er57    10.0   1_655     S
V75     V73    10.0   1_665     S
V75     V76    10.0   1_665     S
V75     V80    10.0   .     S
V75     V78    10.0   1_655     S
V75     V81    10.0   .     S
V76     Er15    10.0   1_544     S
V76     Er13    10.0   1_554     S
V76     Er12    10.0   1_544     S
V76     Er57    10.0   1_545     S
V76     V77    10.0   .     S
V76     V78    10.0   1_545     S
V76     V75    10.0   1_445     S
V76     V80    10.0   .     S
V76     V79    10.0   .     S
V77     Er13    10.0   1_554     S
V77     Er14    10.0   1_554     S
V77     Er10    10.0   1_554     S
V77     V78    10.0   .     S
V77     V81    10.0   .     S
V77     V74    10.0   1_455     S
V77     V80    10.0   .     S
V78     Er14    10.0   1_554     S
V78     Er15    10.0   1_554     S
V78     Er11    10.0   1_554     S
V78     V76    10.0   1_565     S
V78     V74    10.0   1_455     S
V78     V79    10.0   1_565     S
V78     V75    10.0   1_455     S
V78     V81    10.0   .     S
V79     Er18    10.0   1_544     S
V79     Er16    10.0   1_554     S
V79     Er15    10.0   1_544     S
V79     Er60    10.0   1_545     S
V79     V80    10.0   .     S
V79     V81    10.0   1_545     S
V79     V78    10.0   1_545     S
V79     V73    10.0   1_655     S
V80     Er16    10.0   1_554     S
V80     Er17    10.0   1_554     S
V80     Er13    10.0   1_554     S
V80     V81    10.0   .     S
V81     Er17    10.0   1_554     S
V81     Er18    10.0   1_554     S
V81     Er14    10.0   1_554     S
V81     V79    10.0   1_565     S
V81     V73    10.0   1_665     S
