data_tcn
_audit_creation_date              2019-12-31
_audit_creation_method            'Pymatgen'
_symmetry_space_group_name_H-M    'P1'
_symmetry_Int_Tables_number       1
loop_
_symmetry_equiv_pos_as_xyz
  x,y,z
_cell_length_a                    30.0
_cell_length_b                    30.0
_cell_length_c                    51.9616
_cell_angle_alpha                 90.0
_cell_angle_beta                 90.0
_cell_angle_gamma                 120.0
loop_
_atom_site_label
_atom_site_type_symbol
_atom_site_fract_x
_atom_site_fract_y
_atom_site_fract_z
Er1     Er     0.0   0.1667   0.3333
Er2     Er     1.0   0.5   0.3333
Er3     Er     1.0   0.8333   0.3333
Er4     Er     0.3333   0.1667   0.3333
Er5     Er     0.3333   0.5   0.3333
Er6     Er     0.3333   0.8333   0.3333
Er7     Er     0.6667   0.1667   0.3333
Er8     Er     0.6667   0.5   0.3333
Er9     Er     0.6667   0.8333   0.3333
V10     V     0.0   0.0   0.8333
V11     V     1.0   0.3333   0.8333
V12     V     1.0   0.6667   0.8333
V13     V     0.3333   0.0   0.8333
V14     V     0.3333   0.3333   0.8333
V15     V     0.3333   0.6667   0.8333
V16     V     0.6667   0.0   0.8333
V17     V     0.6667   0.3333   0.8333
V18     V     0.6667   0.6667   0.8333
Er19     Er     0.1667   0.0   0.0
Er20     Er     0.1667   0.3333   0.0
Er21     Er     0.1667   0.6667   0.0
Er22     Er     0.5   0.0   0.0
Er23     Er     0.5   0.3333   0.0
Er24     Er     0.5   0.6667   0.0
Er25     Er     0.8333   0.0   0.0
Er26     Er     0.8333   0.3333   0.0
Er27     Er     0.8333   0.6667   0.0
V28     V     0.0   0.0   0.1667
V29     V     1.0   0.3333   0.1667
V30     V     1.0   0.6667   0.1667
V31     V     0.3333   0.0   0.1667
V32     V     0.3333   0.3333   0.1667
V33     V     0.3333   0.6667   0.1667
V34     V     0.6667   0.0   0.1667
V35     V     0.6667   0.3333   0.1667
V36     V     0.6667   0.6667   0.1667
V37     V     0.0   0.0   0.5
V38     V     1.0   0.3333   0.5
V39     V     1.0   0.6667   0.5
V40     V     0.3333   0.0   0.5
V41     V     0.3333   0.3333   0.5
V42     V     0.3333   0.6667   0.5
V43     V     0.6667   0.0   0.5
V44     V     0.6667   0.3333   0.5
V45     V     0.6667   0.6667   0.5
Er46     Er     0.1667   0.1667   0.6667
Er47     Er     0.1667   0.5   0.6667
Er48     Er     0.1667   0.8333   0.6667
Er49     Er     0.5   0.1667   0.6667
Er50     Er     0.5   0.5   0.6667
Er51     Er     0.5   0.8333   0.6667
Er52     Er     0.8333   0.1667   0.6667
Er53     Er     0.8333   0.5   0.6667
Er54     Er     0.8333   0.8333   0.6667
loop_
_geom_bond_atom_site_label_1
_geom_bond_atom_site_label_2
_geom_bond_distance
_geom_bond_site_symmetry_2
_ccdc_geom_bond_type
Er1     V37    10.0   .     S
Er1     V38    10.0   1_455     S
Er1     V29    10.0   1_455     S
Er1     Er3    10.0   1_445     S
Er1     Er2    10.0   1_455     S
Er1     V28    10.0   .     S
Er1     Er4    10.0   .     S
Er1     Er7    10.0   1_455     S
Er1     Er5    10.0   .     S
Er1     Er9    10.0   1_445     S
Er2     V38    10.0   .     S
Er2     V39    10.0   .     S
Er2     V30    10.0   .     S
Er2     Er1    10.0   1_655     S
Er2     Er3    10.0   .     S
Er2     V29    10.0   .     S
Er2     Er5    10.0   1_655     S
Er2     Er8    10.0   .     S
Er2     Er6    10.0   1_655     S
Er2     Er7    10.0   .     S
Er3     V39    10.0   .     S
Er3     V37    10.0   1_665     S
Er3     V28    10.0   1_665     S
Er3     Er1    10.0   1_665     S
Er3     V30    10.0   .     S
Er3     Er6    10.0   1_655     S
Er3     Er9    10.0   .     S
Er3     Er4    10.0   1_665     S
Er3     Er8    10.0   .     S
Er4     V40    10.0   .     S
Er4     V41    10.0   .     S
Er4     V32    10.0   .     S
Er4     Er6    10.0   1_545     S
Er4     Er5    10.0   .     S
Er4     V31    10.0   .     S
Er4     Er7    10.0   .     S
Er4     Er3    10.0   1_445     S
Er4     Er8    10.0   .     S
Er5     V41    10.0   .     S
Er5     V42    10.0   .     S
Er5     V33    10.0   .     S
Er5     Er6    10.0   .     S
Er5     V32    10.0   .     S
Er5     Er2    10.0   1_455     S
Er5     Er8    10.0   .     S
Er5     Er9    10.0   .     S
Er6     V42    10.0   .     S
Er6     V40    10.0   1_565     S
Er6     V31    10.0   1_565     S
Er6     Er4    10.0   1_565     S
Er6     V33    10.0   .     S
Er6     Er3    10.0   1_455     S
Er6     Er9    10.0   .     S
Er6     Er2    10.0   1_455     S
Er6     Er7    10.0   1_565     S
Er7     V43    10.0   .     S
Er7     V44    10.0   .     S
Er7     V35    10.0   .     S
Er7     Er9    10.0   1_545     S
Er7     Er8    10.0   .     S
Er7     V34    10.0   .     S
Er7     Er1    10.0   1_655     S
Er7     Er6    10.0   1_545     S
Er8     V44    10.0   .     S
Er8     V45    10.0   .     S
Er8     V36    10.0   .     S
Er8     Er9    10.0   .     S
Er8     V35    10.0   .     S
Er9     V45    10.0   .     S
Er9     V43    10.0   1_565     S
Er9     V34    10.0   1_565     S
Er9     Er7    10.0   1_565     S
Er9     V36    10.0   .     S
Er9     Er1    10.0   1_665     S
V10     Er46    10.0   .     S
V10     Er54    10.0   1_445     S
V10     V13    10.0   .     S
V10     V16    10.0   1_455     S
V10     V11    10.0   1_455     S
V10     V12    10.0   1_445     S
V10     V14    10.0   .     S
V10     V18    10.0   1_445     S
V10     Er19    10.0   1_556     S
V10     Er25    10.0   1_456     S
V11     Er47    10.0   1_655     S
V11     Er52    10.0   .     S
V11     V14    10.0   1_655     S
V11     V17    10.0   .     S
V11     V10    10.0   1_655     S
V11     V12    10.0   .     S
V11     V15    10.0   1_655     S
V11     V16    10.0   .     S
V11     Er20    10.0   1_656     S
V11     Er26    10.0   1_556     S
V12     Er48    10.0   1_655     S
V12     Er53    10.0   .     S
V12     V15    10.0   1_655     S
V12     V18    10.0   .     S
V12     V10    10.0   1_665     S
V12     V13    10.0   1_665     S
V12     V17    10.0   .     S
V12     Er21    10.0   1_656     S
V12     Er27    10.0   1_556     S
V13     Er49    10.0   .     S
V13     Er48    10.0   1_545     S
V13     V16    10.0   .     S
V13     V14    10.0   .     S
V13     V15    10.0   1_545     S
V13     V12    10.0   1_445     S
V13     V17    10.0   .     S
V13     Er22    10.0   1_556     S
V13     Er19    10.0   1_556     S
V14     Er50    10.0   .     S
V14     Er46    10.0   .     S
V14     V11    10.0   1_455     S
V14     V17    10.0   .     S
V14     V15    10.0   .     S
V14     V18    10.0   .     S
V14     Er23    10.0   1_556     S
V14     Er20    10.0   1_556     S
V15     Er51    10.0   .     S
V15     Er47    10.0   .     S
V15     V12    10.0   1_455     S
V15     V18    10.0   .     S
V15     V13    10.0   1_565     S
V15     V11    10.0   1_455     S
V15     V16    10.0   1_565     S
V15     Er24    10.0   1_556     S
V15     Er21    10.0   1_556     S
V16     Er52    10.0   .     S
V16     Er51    10.0   1_545     S
V16     V10    10.0   1_655     S
V16     V17    10.0   .     S
V16     V18    10.0   1_545     S
V16     V15    10.0   1_545     S
V16     Er25    10.0   1_556     S
V16     Er22    10.0   1_556     S
V17     Er53    10.0   .     S
V17     Er49    10.0   .     S
V17     V18    10.0   .     S
V17     Er26    10.0   1_556     S
V17     Er23    10.0   1_556     S
V18     Er54    10.0   .     S
V18     Er50    10.0   .     S
V18     V16    10.0   1_565     S
V18     V10    10.0   1_665     S
V18     Er27    10.0   1_556     S
V18     Er24    10.0   1_556     S
Er19     Er25    10.0   1_455     S
Er19     Er22    10.0   .     S
Er19     V28    10.0   .     S
Er19     V31    10.0   .     S
Er19     V10    10.0   1_554     S
Er19     V13    10.0   1_554     S
Er19     Er27    10.0   1_445     S
Er19     Er23    10.0   .     S
Er19     Er20    10.0   .     S
Er19     Er21    10.0   1_545     S
Er20     Er26    10.0   1_455     S
Er20     Er23    10.0   .     S
Er20     V29    10.0   1_455     S
Er20     V32    10.0   .     S
Er20     V11    10.0   1_454     S
Er20     V14    10.0   1_554     S
Er20     Er25    10.0   1_455     S
Er20     Er24    10.0   .     S
Er20     Er21    10.0   .     S
Er21     Er27    10.0   1_455     S
Er21     Er24    10.0   .     S
Er21     V30    10.0   1_455     S
Er21     V33    10.0   .     S
Er21     V12    10.0   1_454     S
Er21     V15    10.0   1_554     S
Er21     Er26    10.0   1_455     S
Er21     Er22    10.0   1_565     S
Er21     Er19    10.0   1_565     S
Er22     Er25    10.0   .     S
Er22     V31    10.0   .     S
Er22     V34    10.0   .     S
Er22     V13    10.0   1_554     S
Er22     V16    10.0   1_554     S
Er22     Er21    10.0   1_545     S
Er22     Er26    10.0   .     S
Er22     Er23    10.0   .     S
Er22     Er24    10.0   1_545     S
Er23     Er26    10.0   .     S
Er23     V32    10.0   .     S
Er23     V35    10.0   .     S
Er23     V14    10.0   1_554     S
Er23     V17    10.0   1_554     S
Er23     Er27    10.0   .     S
Er23     Er24    10.0   .     S
Er24     Er27    10.0   .     S
Er24     V33    10.0   .     S
Er24     V36    10.0   .     S
Er24     V15    10.0   1_554     S
Er24     V18    10.0   1_554     S
Er24     Er25    10.0   1_565     S
Er24     Er22    10.0   1_565     S
Er25     Er19    10.0   1_655     S
Er25     V34    10.0   .     S
Er25     V28    10.0   1_655     S
Er25     V16    10.0   1_554     S
Er25     V10    10.0   1_654     S
Er25     Er20    10.0   1_655     S
Er25     Er24    10.0   1_545     S
Er25     Er26    10.0   .     S
Er25     Er27    10.0   1_545     S
Er26     Er20    10.0   1_655     S
Er26     V35    10.0   .     S
Er26     V29    10.0   .     S
Er26     V17    10.0   1_554     S
Er26     V11    10.0   1_554     S
Er26     Er21    10.0   1_655     S
Er26     Er27    10.0   .     S
Er27     Er21    10.0   1_655     S
Er27     V36    10.0   .     S
Er27     V30    10.0   .     S
Er27     V18    10.0   1_554     S
Er27     V12    10.0   1_554     S
Er27     Er19    10.0   1_665     S
Er27     Er25    10.0   1_565     S
V28     Er3    10.0   1_445     S
V28     Er25    10.0   1_455     S
V28     V29    10.0   1_455     S
V28     V30    10.0   1_445     S
V28     V32    10.0   .     S
V28     V36    10.0   1_445     S
V28     V31    10.0   .     S
V28     V34    10.0   1_455     S
V29     Er1    10.0   1_655     S
V29     Er20    10.0   1_655     S
V29     V28    10.0   1_655     S
V29     V30    10.0   .     S
V29     V33    10.0   1_655     S
V29     V34    10.0   .     S
V29     V32    10.0   1_655     S
V29     V35    10.0   .     S
V30     Er21    10.0   1_655     S
V30     V28    10.0   1_665     S
V30     V31    10.0   1_665     S
V30     V35    10.0   .     S
V30     V33    10.0   1_655     S
V30     V36    10.0   .     S
V31     Er6    10.0   1_545     S
V31     V32    10.0   .     S
V31     V33    10.0   1_545     S
V31     V30    10.0   1_445     S
V31     V35    10.0   .     S
V31     V34    10.0   .     S
V32     V33    10.0   .     S
V32     V36    10.0   .     S
V32     V29    10.0   1_455     S
V32     V35    10.0   .     S
V33     V31    10.0   1_565     S
V33     V29    10.0   1_455     S
V33     V34    10.0   1_565     S
V33     V30    10.0   1_455     S
V33     V36    10.0   .     S
V34     Er9    10.0   1_545     S
V34     V35    10.0   .     S
V34     V36    10.0   1_545     S
V34     V33    10.0   1_545     S
V34     V28    10.0   1_655     S
V35     V36    10.0   .     S
V36     V34    10.0   1_565     S
V36     V28    10.0   1_665     S
V37     Er3    10.0   1_445     S
V37     V41    10.0   .     S
V37     V45    10.0   1_445     S
V37     V40    10.0   .     S
V37     V43    10.0   1_455     S
V37     V38    10.0   1_455     S
V37     V39    10.0   1_445     S
V37     Er46    10.0   .     S
V37     Er54    10.0   1_445     S
V38     Er1    10.0   1_655     S
V38     V42    10.0   1_655     S
V38     V43    10.0   .     S
V38     V41    10.0   1_655     S
V38     V44    10.0   .     S
V38     V37    10.0   1_655     S
V38     V39    10.0   .     S
V38     Er47    10.0   1_655     S
V38     Er52    10.0   .     S
V39     V40    10.0   1_665     S
V39     V44    10.0   .     S
V39     V42    10.0   1_655     S
V39     V45    10.0   .     S
V39     V37    10.0   1_665     S
V39     Er48    10.0   1_655     S
V39     Er53    10.0   .     S
V40     Er6    10.0   1_545     S
V40     V39    10.0   1_445     S
V40     V44    10.0   .     S
V40     V43    10.0   .     S
V40     V41    10.0   .     S
V40     V42    10.0   1_545     S
V40     Er49    10.0   .     S
V40     Er48    10.0   1_545     S
V41     V45    10.0   .     S
V41     V38    10.0   1_455     S
V41     V44    10.0   .     S
V41     V42    10.0   .     S
V41     Er50    10.0   .     S
V41     Er46    10.0   .     S
V42     V38    10.0   1_455     S
V42     V43    10.0   1_565     S
V42     V39    10.0   1_455     S
V42     V45    10.0   .     S
V42     V40    10.0   1_565     S
V42     Er51    10.0   .     S
V42     Er47    10.0   .     S
V43     Er9    10.0   1_545     S
V43     V42    10.0   1_545     S
V43     V37    10.0   1_655     S
V43     V44    10.0   .     S
V43     V45    10.0   1_545     S
V43     Er52    10.0   .     S
V43     Er51    10.0   1_545     S
V44     V45    10.0   .     S
V44     Er53    10.0   .     S
V44     Er49    10.0   .     S
V45     V37    10.0   1_665     S
V45     V43    10.0   1_565     S
V45     Er54    10.0   .     S
V45     Er50    10.0   .     S
Er46     Er54    10.0   1_445     S
Er46     Er50    10.0   .     S
Er46     Er48    10.0   1_545     S
Er46     Er47    10.0   .     S
Er46     Er52    10.0   1_455     S
Er46     Er49    10.0   .     S
Er47     V11    10.0   1_455     S
Er47     V38    10.0   1_455     S
Er47     Er52    10.0   1_455     S
Er47     Er51    10.0   .     S
Er47     Er48    10.0   .     S
Er47     Er53    10.0   1_455     S
Er47     Er50    10.0   .     S
Er48     V12    10.0   1_455     S
Er48     V13    10.0   1_565     S
Er48     V39    10.0   1_455     S
Er48     Er53    10.0   1_455     S
Er48     Er49    10.0   1_565     S
Er48     V40    10.0   1_565     S
Er48     Er46    10.0   1_565     S
Er48     Er54    10.0   1_455     S
Er48     Er51    10.0   .     S
Er49     Er48    10.0   1_545     S
Er49     Er53    10.0   .     S
Er49     Er51    10.0   1_545     S
Er49     Er50    10.0   .     S
Er49     Er52    10.0   .     S
Er50     Er54    10.0   .     S
Er50     Er51    10.0   .     S
Er50     Er53    10.0   .     S
Er51     V16    10.0   1_565     S
Er51     Er52    10.0   1_565     S
Er51     V43    10.0   1_565     S
Er51     Er49    10.0   1_565     S
Er51     Er54    10.0   .     S
Er52     Er47    10.0   1_655     S
Er52     Er51    10.0   1_545     S
Er52     Er54    10.0   1_545     S
Er52     Er53    10.0   .     S
Er52     Er46    10.0   1_655     S
Er53     Er48    10.0   1_655     S
Er53     Er54    10.0   .     S
Er53     Er47    10.0   1_655     S
Er54     V10    10.0   1_665     S
Er54     Er46    10.0   1_665     S
Er54     V37    10.0   1_665     S
Er54     Er52    10.0   1_565     S
Er54     Er48    10.0   1_655     S
