data_tco
_audit_creation_date              2019-12-31
_audit_creation_method            'Pymatgen'
_symmetry_space_group_name_H-M    'P1'
_symmetry_Int_Tables_number       1
loop_
_symmetry_equiv_pos_as_xyz
  x,y,z
_cell_length_a                    29.9997
_cell_length_b                    34.641
_cell_length_c                    34.6412
_cell_angle_alpha                 90.0
_cell_angle_beta                 90.0
_cell_angle_gamma                 90.0
loop_
_atom_site_label
_atom_site_type_symbol
_atom_site_fract_x
_atom_site_fract_y
_atom_site_fract_z
V1     V     0.1667   0.25   0.75
V2     V     0.1667   0.75   0.75
V3     V     0.5   0.25   0.75
V4     V     0.5   0.75   0.75
V5     V     0.8333   0.25   0.75
V6     V     0.8333   0.75   0.75
V7     V     0.0   0.0   0.75
V8     V     0.0   0.5   0.75
V9     V     0.3333   0.0   0.75
V10     V     0.3333   0.5   0.75
V11     V     0.6667   0.0   0.75
V12     V     0.6667   0.5   0.75
Er13     Er     0.25   0.125   0.5
Er14     Er     0.25   0.625   0.5
Er15     Er     0.5833   0.125   0.5
Er16     Er     0.5833   0.625   0.5
Er17     Er     0.9167   0.125   0.5
Er18     Er     0.9167   0.625   0.5
Er19     Er     0.0833   0.375   0.5
Er20     Er     0.0833   0.875   0.5
Er21     Er     0.4167   0.375   0.5
Er22     Er     0.4167   0.875   0.5
Er23     Er     0.75   0.375   0.5
Er24     Er     0.75   0.875   0.5
Er25     Er     0.25   0.375   0.0
Er26     Er     0.25   0.875   0.0
Er27     Er     0.5833   0.375   0.0
Er28     Er     0.5833   0.875   0.0
Er29     Er     0.9167   0.375   0.0
Er30     Er     0.9167   0.875   0.0
Er31     Er     0.0833   0.125   0.0
Er32     Er     0.0833   0.625   0.0
Er33     Er     0.4167   0.125   0.0
Er34     Er     0.4167   0.625   0.0
Er35     Er     0.75   0.125   0.0
Er36     Er     0.75   0.625   0.0
V37     V     0.1667   0.25   0.25
V38     V     0.1667   0.75   0.25
V39     V     0.5   0.25   0.25
V40     V     0.5   0.75   0.25
V41     V     0.8333   0.25   0.25
V42     V     0.8333   0.75   0.25
V43     V     0.0   0.0   0.25
V44     V     0.0   0.5   0.25
V45     V     0.3333   0.0   0.25
V46     V     0.3333   0.5   0.25
V47     V     0.6667   0.0   0.25
V48     V     0.6667   0.5   0.25
loop_
_geom_bond_atom_site_label_1
_geom_bond_atom_site_label_2
_geom_bond_distance
_geom_bond_site_symmetry_2
_ccdc_geom_bond_type
V1     Er19    10.0   .     S
V1     Er13    10.0   .     S
V1     V7    10.0   .     S
V1     V9    10.0   .     S
V1     V5    10.0   1_455     S
V1     V3    10.0   .     S
V1     V10    10.0   .     S
V1     V8    10.0   .     S
V1     Er25    10.0   1_556     S
V1     Er31    10.0   1_556     S
V2     Er20    10.0   .     S
V2     Er14    10.0   .     S
V2     V8    10.0   .     S
V2     V10    10.0   .     S
V2     V6    10.0   1_455     S
V2     V4    10.0   .     S
V2     V9    10.0   1_565     S
V2     V7    10.0   1_565     S
V2     Er26    10.0   1_556     S
V2     Er32    10.0   1_556     S
V3     Er21    10.0   .     S
V3     Er15    10.0   .     S
V3     V9    10.0   .     S
V3     V11    10.0   .     S
V3     V5    10.0   .     S
V3     V12    10.0   .     S
V3     V10    10.0   .     S
V3     Er27    10.0   1_556     S
V3     Er33    10.0   1_556     S
V4     Er22    10.0   .     S
V4     Er16    10.0   .     S
V4     V10    10.0   .     S
V4     V12    10.0   .     S
V4     V6    10.0   .     S
V4     V11    10.0   1_565     S
V4     V9    10.0   1_565     S
V4     Er28    10.0   1_556     S
V4     Er34    10.0   1_556     S
V5     Er23    10.0   .     S
V5     Er17    10.0   .     S
V5     V11    10.0   .     S
V5     V7    10.0   1_655     S
V5     V1    10.0   1_655     S
V5     V8    10.0   1_655     S
V5     V12    10.0   .     S
V5     Er29    10.0   1_556     S
V5     Er35    10.0   1_556     S
V6     Er24    10.0   .     S
V6     Er18    10.0   .     S
V6     V12    10.0   .     S
V6     V8    10.0   1_655     S
V6     V2    10.0   1_655     S
V6     V7    10.0   1_665     S
V6     V11    10.0   1_565     S
V6     Er30    10.0   1_556     S
V6     Er36    10.0   1_556     S
V7     Er20    10.0   1_545     S
V7     Er17    10.0   1_455     S
V7     V5    10.0   1_455     S
V7     V9    10.0   .     S
V7     V11    10.0   1_455     S
V7     V6    10.0   1_445     S
V7     V2    10.0   1_545     S
V7     Er30    10.0   1_446     S
V7     Er31    10.0   1_556     S
V8     Er19    10.0   .     S
V8     Er18    10.0   1_455     S
V8     V6    10.0   1_455     S
V8     V10    10.0   .     S
V8     V12    10.0   1_455     S
V8     V5    10.0   1_455     S
V8     Er29    10.0   1_456     S
V8     Er32    10.0   1_556     S
V9     Er22    10.0   1_545     S
V9     Er13    10.0   .     S
V9     V11    10.0   .     S
V9     V2    10.0   1_545     S
V9     V4    10.0   1_545     S
V9     Er26    10.0   1_546     S
V9     Er33    10.0   1_556     S
V10     Er21    10.0   .     S
V10     Er14    10.0   .     S
V10     V12    10.0   .     S
V10     Er25    10.0   1_556     S
V10     Er34    10.0   1_556     S
V11     Er24    10.0   1_545     S
V11     Er15    10.0   .     S
V11     V7    10.0   1_655     S
V11     V4    10.0   1_545     S
V11     V6    10.0   1_545     S
V11     Er28    10.0   1_546     S
V11     Er35    10.0   1_556     S
V12     Er23    10.0   .     S
V12     Er16    10.0   .     S
V12     V8    10.0   1_655     S
V12     Er27    10.0   1_556     S
V12     Er36    10.0   1_556     S
Er13     Er22    10.0   1_545     S
Er13     Er20    10.0   1_545     S
Er13     Er17    10.0   1_455     S
Er13     Er15    10.0   .     S
Er13     Er19    10.0   .     S
Er13     Er21    10.0   .     S
Er13     V37    10.0   .     S
Er13     V45    10.0   .     S
Er14     Er21    10.0   .     S
Er14     Er19    10.0   .     S
Er14     Er18    10.0   1_455     S
Er14     Er16    10.0   .     S
Er14     Er20    10.0   .     S
Er14     Er22    10.0   .     S
Er14     V38    10.0   .     S
Er14     V46    10.0   .     S
Er15     Er24    10.0   1_545     S
Er15     Er22    10.0   1_545     S
Er15     Er17    10.0   .     S
Er15     Er21    10.0   .     S
Er15     Er23    10.0   .     S
Er15     V39    10.0   .     S
Er15     V47    10.0   .     S
Er16     Er23    10.0   .     S
Er16     Er21    10.0   .     S
Er16     Er18    10.0   .     S
Er16     Er22    10.0   .     S
Er16     Er24    10.0   .     S
Er16     V40    10.0   .     S
Er16     V48    10.0   .     S
Er17     V7    10.0   1_655     S
Er17     Er20    10.0   1_645     S
Er17     Er24    10.0   1_545     S
Er17     Er13    10.0   1_655     S
Er17     Er23    10.0   .     S
Er17     Er19    10.0   1_655     S
Er17     V41    10.0   .     S
Er17     V43    10.0   1_655     S
Er18     V8    10.0   1_655     S
Er18     Er19    10.0   1_655     S
Er18     Er23    10.0   .     S
Er18     Er14    10.0   1_655     S
Er18     Er24    10.0   .     S
Er18     Er20    10.0   1_655     S
Er18     V42    10.0   .     S
Er18     V44    10.0   1_655     S
Er19     Er18    10.0   1_455     S
Er19     Er21    10.0   .     S
Er19     Er23    10.0   1_455     S
Er19     Er17    10.0   1_455     S
Er19     V44    10.0   .     S
Er19     V37    10.0   .     S
Er20     V7    10.0   1_565     S
Er20     Er17    10.0   1_465     S
Er20     Er13    10.0   1_565     S
Er20     Er22    10.0   .     S
Er20     Er24    10.0   1_455     S
Er20     Er18    10.0   1_455     S
Er20     V43    10.0   1_565     S
Er20     V38    10.0   .     S
Er21     Er23    10.0   .     S
Er21     V46    10.0   .     S
Er21     V39    10.0   .     S
Er22     V9    10.0   1_565     S
Er22     Er13    10.0   1_565     S
Er22     Er15    10.0   1_565     S
Er22     Er24    10.0   .     S
Er22     V45    10.0   1_565     S
Er22     V40    10.0   .     S
Er23     Er19    10.0   1_655     S
Er23     V48    10.0   .     S
Er23     V41    10.0   .     S
Er24     V11    10.0   1_565     S
Er24     Er15    10.0   1_565     S
Er24     Er17    10.0   1_565     S
Er24     Er20    10.0   1_655     S
Er24     V47    10.0   1_565     S
Er24     V42    10.0   .     S
Er25     V10    10.0   1_554     S
Er25     V1    10.0   1_554     S
Er25     Er34    10.0   .     S
Er25     Er32    10.0   .     S
Er25     Er29    10.0   1_455     S
Er25     Er27    10.0   .     S
Er25     Er31    10.0   .     S
Er25     Er33    10.0   .     S
Er25     V46    10.0   .     S
Er25     V37    10.0   .     S
Er26     V9    10.0   1_564     S
Er26     V2    10.0   1_554     S
Er26     Er33    10.0   1_565     S
Er26     Er31    10.0   1_565     S
Er26     Er30    10.0   1_455     S
Er26     Er28    10.0   .     S
Er26     Er32    10.0   .     S
Er26     Er34    10.0   .     S
Er26     V45    10.0   1_565     S
Er26     V38    10.0   .     S
Er27     V12    10.0   1_554     S
Er27     V3    10.0   1_554     S
Er27     Er36    10.0   .     S
Er27     Er34    10.0   .     S
Er27     Er29    10.0   .     S
Er27     Er33    10.0   .     S
Er27     Er35    10.0   .     S
Er27     V48    10.0   .     S
Er27     V39    10.0   .     S
Er28     V11    10.0   1_564     S
Er28     V4    10.0   1_554     S
Er28     Er35    10.0   1_565     S
Er28     Er33    10.0   1_565     S
Er28     Er30    10.0   .     S
Er28     Er34    10.0   .     S
Er28     Er36    10.0   .     S
Er28     V47    10.0   1_565     S
Er28     V40    10.0   .     S
Er29     V8    10.0   1_654     S
Er29     V5    10.0   1_554     S
Er29     Er32    10.0   1_655     S
Er29     Er36    10.0   .     S
Er29     Er25    10.0   1_655     S
Er29     Er35    10.0   .     S
Er29     Er31    10.0   1_655     S
Er29     V44    10.0   1_655     S
Er29     V41    10.0   .     S
Er30     V7    10.0   1_664     S
Er30     V6    10.0   1_554     S
Er30     Er31    10.0   1_665     S
Er30     Er35    10.0   1_565     S
Er30     Er26    10.0   1_655     S
Er30     Er36    10.0   .     S
Er30     Er32    10.0   1_655     S
Er30     V43    10.0   1_665     S
Er30     V42    10.0   .     S
Er31     V1    10.0   1_554     S
Er31     V7    10.0   1_554     S
Er31     Er30    10.0   1_445     S
Er31     Er26    10.0   1_545     S
Er31     Er33    10.0   .     S
Er31     Er35    10.0   1_455     S
Er31     Er29    10.0   1_455     S
Er31     V43    10.0   .     S
Er31     V37    10.0   .     S
Er32     V2    10.0   1_554     S
Er32     V8    10.0   1_554     S
Er32     Er29    10.0   1_455     S
Er32     Er34    10.0   .     S
Er32     Er36    10.0   1_455     S
Er32     Er30    10.0   1_455     S
Er32     V44    10.0   .     S
Er32     V38    10.0   .     S
Er33     V3    10.0   1_554     S
Er33     V9    10.0   1_554     S
Er33     Er26    10.0   1_545     S
Er33     Er28    10.0   1_545     S
Er33     Er35    10.0   .     S
Er33     V45    10.0   .     S
Er33     V39    10.0   .     S
Er34     V4    10.0   1_554     S
Er34     V10    10.0   1_554     S
Er34     Er36    10.0   .     S
Er34     V46    10.0   .     S
Er34     V40    10.0   .     S
Er35     V5    10.0   1_554     S
Er35     V11    10.0   1_554     S
Er35     Er28    10.0   1_545     S
Er35     Er30    10.0   1_545     S
Er35     Er31    10.0   1_655     S
Er35     V47    10.0   .     S
Er35     V41    10.0   .     S
Er36     V6    10.0   1_554     S
Er36     V12    10.0   1_554     S
Er36     Er32    10.0   1_655     S
Er36     V48    10.0   .     S
Er36     V42    10.0   .     S
V37     V46    10.0   .     S
V37     V44    10.0   .     S
V37     V41    10.0   1_455     S
V37     V39    10.0   .     S
V37     V43    10.0   .     S
V37     V45    10.0   .     S
V38     V45    10.0   1_565     S
V38     V43    10.0   1_565     S
V38     V42    10.0   1_455     S
V38     V40    10.0   .     S
V38     V44    10.0   .     S
V38     V46    10.0   .     S
V39     V48    10.0   .     S
V39     V46    10.0   .     S
V39     V41    10.0   .     S
V39     V45    10.0   .     S
V39     V47    10.0   .     S
V40     V47    10.0   1_565     S
V40     V45    10.0   1_565     S
V40     V42    10.0   .     S
V40     V46    10.0   .     S
V40     V48    10.0   .     S
V41     V44    10.0   1_655     S
V41     V48    10.0   .     S
V41     V37    10.0   1_655     S
V41     V47    10.0   .     S
V41     V43    10.0   1_655     S
V42     V43    10.0   1_665     S
V42     V47    10.0   1_565     S
V42     V38    10.0   1_655     S
V42     V48    10.0   .     S
V42     V44    10.0   1_655     S
V43     Er20    10.0   1_545     S
V43     Er17    10.0   1_455     S
V43     V42    10.0   1_445     S
V43     V38    10.0   1_545     S
V43     V45    10.0   .     S
V43     V47    10.0   1_455     S
V43     V41    10.0   1_455     S
V43     Er30    10.0   1_445     S
V44     Er18    10.0   1_455     S
V44     V41    10.0   1_455     S
V44     V46    10.0   .     S
V44     V48    10.0   1_455     S
V44     V42    10.0   1_455     S
V44     Er29    10.0   1_455     S
V45     Er22    10.0   1_545     S
V45     V38    10.0   1_545     S
V45     V40    10.0   1_545     S
V45     V47    10.0   .     S
V45     Er26    10.0   1_545     S
V46     V48    10.0   .     S
V47     Er24    10.0   1_545     S
V47     V40    10.0   1_545     S
V47     V42    10.0   1_545     S
V47     V43    10.0   1_655     S
V47     Er28    10.0   1_545     S
V48     V44    10.0   1_655     S
