data_tej
_audit_creation_date              2019-12-31
_audit_creation_method            'Pymatgen'
_symmetry_space_group_name_H-M    'P1'
_symmetry_Int_Tables_number       1
loop_
_symmetry_equiv_pos_as_xyz
  x,y,z
_cell_length_a                    31.637
_cell_length_b                    31.637
_cell_length_c                    42.6482
_cell_angle_alpha                 90.0
_cell_angle_beta                 90.0
_cell_angle_gamma                 90.0
loop_
_atom_site_label
_atom_site_type_symbol
_atom_site_fract_x
_atom_site_fract_y
_atom_site_fract_z
V1     V     0.125   0.125   0.0
V2     V     0.125   0.125   0.5
V3     V     0.125   0.625   0.0
V4     V     0.125   0.625   0.5
V5     V     0.625   0.125   0.0
V6     V     0.625   0.125   0.5
V7     V     0.625   0.625   0.0
V8     V     0.625   0.625   0.5
V9     V     0.375   0.375   0.0
V10     V     0.375   0.375   0.5
V11     V     0.375   0.875   0.0
V12     V     0.375   0.875   0.5
V13     V     0.875   0.375   0.0
V14     V     0.875   0.375   0.5
V15     V     0.875   0.875   0.0
V16     V     0.875   0.875   0.5
Er17     Er     0.125   0.375   0.125
Er18     Er     0.125   0.375   0.625
Er19     Er     0.125   0.875   0.125
Er20     Er     0.125   0.875   0.625
Er21     Er     0.625   0.375   0.125
Er22     Er     0.625   0.375   0.625
Er23     Er     0.625   0.875   0.125
Er24     Er     0.625   0.875   0.625
V25     V     0.125   0.125   0.25
V26     V     0.125   0.125   0.75
V27     V     0.125   0.625   0.25
V28     V     0.125   0.625   0.75
V29     V     0.625   0.125   0.25
V30     V     0.625   0.125   0.75
V31     V     0.625   0.625   0.25
V32     V     0.625   0.625   0.75
Er33     Er     0.375   0.125   0.375
Er34     Er     0.375   0.125   0.875
Er35     Er     0.375   0.625   0.375
Er36     Er     0.375   0.625   0.875
Er37     Er     0.875   0.125   0.375
Er38     Er     0.875   0.125   0.875
Er39     Er     0.875   0.625   0.375
Er40     Er     0.875   0.625   0.875
V41     V     0.375   0.375   0.25
V42     V     0.375   0.375   0.75
V43     V     0.375   0.875   0.25
V44     V     0.375   0.875   0.75
V45     V     0.875   0.375   0.25
V46     V     0.875   0.375   0.75
V47     V     0.875   0.875   0.25
V48     V     0.875   0.875   0.75
loop_
_geom_bond_atom_site_label_1
_geom_bond_atom_site_label_2
_geom_bond_distance
_geom_bond_site_symmetry_2
_ccdc_geom_bond_type
V1     Er38    9.538   1_454     S
V1     Er34    9.538   1_554     S
V1     Er19    9.538   1_545     S
V1     Er17    9.538   .     S
V1     V9    11.185   .     S
V1     V15    11.185   1_445     S
V1     V25    10.662   .     S
V1     V26    10.662   1_554     S
V2     Er37    9.538   1_455     S
V2     Er33    9.538   .     S
V2     Er20    9.538   1_545     S
V2     Er18    9.538   .     S
V2     V10    11.185   .     S
V2     V16    11.185   1_445     S
V2     V26    10.662   .     S
V2     V25    10.662   .     S
V3     Er40    9.538   1_454     S
V3     Er36    9.538   1_554     S
V3     Er17    9.538   .     S
V3     Er19    9.538   .     S
V3     V11    11.185   .     S
V3     V13    11.185   1_455     S
V3     V27    10.662   .     S
V3     V28    10.662   1_554     S
V4     Er39    9.538   1_455     S
V4     Er35    9.538   .     S
V4     Er18    9.538   .     S
V4     Er20    9.538   .     S
V4     V12    11.185   .     S
V4     V14    11.185   1_455     S
V4     V28    10.662   .     S
V4     V27    10.662   .     S
V5     Er34    9.538   1_554     S
V5     Er38    9.538   1_554     S
V5     Er23    9.538   1_545     S
V5     Er21    9.538   .     S
V5     V13    11.185   .     S
V5     V11    11.185   1_545     S
V5     V29    10.662   .     S
V5     V30    10.662   1_554     S
V6     Er33    9.538   .     S
V6     Er37    9.538   .     S
V6     Er24    9.538   1_545     S
V6     Er22    9.538   .     S
V6     V14    11.185   .     S
V6     V12    11.185   1_545     S
V6     V30    10.662   .     S
V6     V29    10.662   .     S
V7     Er36    9.538   1_554     S
V7     Er40    9.538   1_554     S
V7     Er21    9.538   .     S
V7     Er23    9.538   .     S
V7     V15    11.185   .     S
V7     V9    11.185   .     S
V7     V31    10.662   .     S
V7     V32    10.662   1_554     S
V8     Er35    9.538   .     S
V8     Er39    9.538   .     S
V8     Er22    9.538   .     S
V8     Er24    9.538   .     S
V8     V16    11.185   .     S
V8     V10    11.185   .     S
V8     V32    10.662   .     S
V8     V31    10.662   .     S
V9     Er34    9.538   1_554     S
V9     Er36    9.538   1_554     S
V9     Er21    9.538   .     S
V9     Er17    9.538   .     S
V9     V42    10.662   1_554     S
V9     V41    10.662   .     S
V10     Er33    9.538   .     S
V10     Er35    9.538   .     S
V10     Er22    9.538   .     S
V10     Er18    9.538   .     S
V10     V41    10.662   .     S
V10     V42    10.662   .     S
V11     Er36    9.538   1_554     S
V11     Er34    9.538   1_564     S
V11     Er23    9.538   .     S
V11     Er19    9.538   .     S
V11     V5    11.185   1_565     S
V11     V44    10.662   1_554     S
V11     V43    10.662   .     S
V12     Er35    9.538   .     S
V12     Er33    9.538   1_565     S
V12     Er24    9.538   .     S
V12     Er20    9.538   .     S
V12     V6    11.185   1_565     S
V12     V43    10.662   .     S
V12     V44    10.662   .     S
V13     Er38    9.538   1_554     S
V13     Er40    9.538   1_554     S
V13     Er17    9.538   1_655     S
V13     Er21    9.538   .     S
V13     V3    11.185   1_655     S
V13     V46    10.662   1_554     S
V13     V45    10.662   .     S
V14     Er37    9.538   .     S
V14     Er39    9.538   .     S
V14     Er18    9.538   1_655     S
V14     Er22    9.538   .     S
V14     V4    11.185   1_655     S
V14     V45    10.662   .     S
V14     V46    10.662   .     S
V15     Er40    9.538   1_554     S
V15     Er38    9.538   1_564     S
V15     Er19    9.538   1_655     S
V15     Er23    9.538   .     S
V15     V1    11.185   1_665     S
V15     V48    10.662   1_554     S
V15     V47    10.662   .     S
V16     Er39    9.538   .     S
V16     Er37    9.538   1_565     S
V16     Er20    9.538   1_655     S
V16     Er24    9.538   .     S
V16     V2    11.185   1_665     S
V16     V47    10.662   .     S
V16     V48    10.662   .     S
Er17     V25    9.538   .     S
Er17     V27    9.538   .     S
Er17     V41    9.538   .     S
Er17     V45    9.538   1_455     S
Er17     V13    9.538   1_455     S
Er18     V26    9.538   .     S
Er18     V28    9.538   .     S
Er18     V42    9.538   .     S
Er18     V46    9.538   1_455     S
Er18     V14    9.538   1_455     S
Er19     V1    9.538   1_565     S
Er19     V27    9.538   .     S
Er19     V25    9.538   1_565     S
Er19     V43    9.538   .     S
Er19     V47    9.538   1_455     S
Er19     V15    9.538   1_455     S
Er20     V2    9.538   1_565     S
Er20     V28    9.538   .     S
Er20     V26    9.538   1_565     S
Er20     V44    9.538   .     S
Er20     V48    9.538   1_455     S
Er20     V16    9.538   1_455     S
Er21     V29    9.538   .     S
Er21     V31    9.538   .     S
Er21     V45    9.538   .     S
Er21     V41    9.538   .     S
Er22     V30    9.538   .     S
Er22     V32    9.538   .     S
Er22     V46    9.538   .     S
Er22     V42    9.538   .     S
Er23     V5    9.538   1_565     S
Er23     V31    9.538   .     S
Er23     V29    9.538   1_565     S
Er23     V47    9.538   .     S
Er23     V43    9.538   .     S
Er24     V6    9.538   1_565     S
Er24     V32    9.538   .     S
Er24     V30    9.538   1_565     S
Er24     V48    9.538   .     S
Er24     V44    9.538   .     S
V25     Er33    9.538   .     S
V25     Er37    9.538   1_455     S
V25     Er19    9.538   1_545     S
V25     V45    11.185   1_455     S
V25     V43    11.185   1_545     S
V26     Er34    9.538   .     S
V26     Er38    9.538   1_455     S
V26     Er20    9.538   1_545     S
V26     V46    11.185   1_455     S
V26     V44    11.185   1_545     S
V26     V1    10.662   1_556     S
V27     Er35    9.538   .     S
V27     Er39    9.538   1_455     S
V27     V47    11.185   1_455     S
V27     V41    11.185   .     S
V28     Er36    9.538   .     S
V28     Er40    9.538   1_455     S
V28     V48    11.185   1_455     S
V28     V42    11.185   .     S
V28     V3    10.662   1_556     S
V29     Er37    9.538   .     S
V29     Er33    9.538   .     S
V29     Er23    9.538   1_545     S
V29     V41    11.185   .     S
V29     V47    11.185   1_545     S
V30     Er38    9.538   .     S
V30     Er34    9.538   .     S
V30     Er24    9.538   1_545     S
V30     V42    11.185   .     S
V30     V48    11.185   1_545     S
V30     V5    10.662   1_556     S
V31     Er39    9.538   .     S
V31     Er35    9.538   .     S
V31     V43    11.185   .     S
V31     V45    11.185   .     S
V32     Er40    9.538   .     S
V32     Er36    9.538   .     S
V32     V44    11.185   .     S
V32     V46    11.185   .     S
V32     V7    10.662   1_556     S
Er33     V12    9.538   1_545     S
Er33     V41    9.538   .     S
Er33     V43    9.538   1_545     S
Er34     V5    9.538   1_556     S
Er34     V1    9.538   1_556     S
Er34     V9    9.538   1_556     S
Er34     V11    9.538   1_546     S
Er34     V42    9.538   .     S
Er34     V44    9.538   1_545     S
Er35     V43    9.538   .     S
Er35     V41    9.538   .     S
Er36     V7    9.538   1_556     S
Er36     V3    9.538   1_556     S
Er36     V11    9.538   1_556     S
Er36     V9    9.538   1_556     S
Er36     V44    9.538   .     S
Er36     V42    9.538   .     S
Er37     V2    9.538   1_655     S
Er37     V16    9.538   1_545     S
Er37     V25    9.538   1_655     S
Er37     V45    9.538   .     S
Er37     V47    9.538   1_545     S
Er38     V1    9.538   1_656     S
Er38     V5    9.538   1_556     S
Er38     V13    9.538   1_556     S
Er38     V15    9.538   1_546     S
Er38     V26    9.538   1_655     S
Er38     V46    9.538   .     S
Er38     V48    9.538   1_545     S
Er39     V4    9.538   1_655     S
Er39     V27    9.538   1_655     S
Er39     V47    9.538   .     S
Er39     V45    9.538   .     S
Er40     V3    9.538   1_656     S
Er40     V7    9.538   1_556     S
Er40     V15    9.538   1_556     S
Er40     V13    9.538   1_556     S
Er40     V28    9.538   1_655     S
Er40     V48    9.538   .     S
Er40     V46    9.538   .     S
V42     V9    10.662   1_556     S
V43     Er33    9.538   1_565     S
V43     V25    11.185   1_565     S
V44     Er34    9.538   1_565     S
V44     V26    11.185   1_565     S
V44     V11    10.662   1_556     S
V45     Er17    9.538   1_655     S
V45     V25    11.185   1_655     S
V46     Er18    9.538   1_655     S
V46     V26    11.185   1_655     S
V46     V13    10.662   1_556     S
V47     Er19    9.538   1_655     S
V47     Er37    9.538   1_565     S
V47     V27    11.185   1_655     S
V47     V29    11.185   1_565     S
V48     Er20    9.538   1_655     S
V48     Er38    9.538   1_565     S
V48     V28    11.185   1_655     S
V48     V30    11.185   1_565     S
V48     V15    10.662   1_556     S
