data_ten
_audit_creation_date              2019-12-31
_audit_creation_method            'Pymatgen'
_symmetry_space_group_name_H-M    'P1'
_symmetry_Int_Tables_number       1
loop_
_symmetry_equiv_pos_as_xyz
  x,y,z
_cell_length_a                    33.697
_cell_length_b                    33.697
_cell_length_c                    33.697
_cell_angle_alpha                 90.0
_cell_angle_beta                 90.0
_cell_angle_gamma                 90.0
loop_
_atom_site_label
_atom_site_type_symbol
_atom_site_fract_x
_atom_site_fract_y
_atom_site_fract_z
V1     V     0.3524   0.0799   0.375
V2     V     0.3524   0.0799   0.875
V3     V     0.3524   0.58   0.375
V4     V     0.3524   0.58   0.875
V5     V     0.8524   0.0799   0.375
V6     V     0.8524   0.0799   0.875
V7     V     0.8524   0.58   0.375
V8     V     0.8524   0.58   0.875
V9     V     0.375   0.1476   0.42
V10     V     0.375   0.1476   0.92
V11     V     0.375   0.6476   0.42
V12     V     0.375   0.6476   0.92
V13     V     0.875   0.1476   0.42
V14     V     0.875   0.1476   0.92
V15     V     0.875   0.6476   0.42
V16     V     0.875   0.6476   0.92
V17     V     0.42   0.125   0.3524
V18     V     0.42   0.125   0.8524
V19     V     0.42   0.625   0.3524
V20     V     0.42   0.625   0.8524
V21     V     0.92   0.125   0.3524
V22     V     0.92   0.125   0.8524
V23     V     0.92   0.625   0.3524
V24     V     0.92   0.625   0.8524
V25     V     0.0799   0.375   0.3524
V26     V     0.0799   0.375   0.8524
V27     V     0.0799   0.875   0.3524
V28     V     0.0799   0.875   0.8524
V29     V     0.58   0.375   0.3524
V30     V     0.58   0.375   0.8524
V31     V     0.58   0.875   0.3524
V32     V     0.58   0.875   0.8524
V33     V     0.1476   0.42   0.375
V34     V     0.1476   0.42   0.875
V35     V     0.1476   0.92   0.375
V36     V     0.1476   0.92   0.875
V37     V     0.6476   0.42   0.375
V38     V     0.6476   0.42   0.875
V39     V     0.6476   0.92   0.375
V40     V     0.6476   0.92   0.875
V41     V     0.125   0.3524   0.42
V42     V     0.125   0.3524   0.92
V43     V     0.125   0.8524   0.42
V44     V     0.125   0.8524   0.92
V45     V     0.625   0.3524   0.42
V46     V     0.625   0.3524   0.92
V47     V     0.625   0.8524   0.42
V48     V     0.625   0.8524   0.92
V49     V     0.0799   0.125   0.1476
V50     V     0.0799   0.125   0.6476
V51     V     0.0799   0.625   0.1476
V52     V     0.0799   0.625   0.6476
V53     V     0.58   0.125   0.1476
V54     V     0.58   0.125   0.6476
V55     V     0.58   0.625   0.1476
V56     V     0.58   0.625   0.6476
V57     V     0.1476   0.0799   0.125
V58     V     0.1476   0.0799   0.625
V59     V     0.1476   0.58   0.125
V60     V     0.1476   0.58   0.625
V61     V     0.6476   0.0799   0.125
V62     V     0.6476   0.0799   0.625
V63     V     0.6476   0.58   0.125
V64     V     0.6476   0.58   0.625
V65     V     0.125   0.1476   0.0799
V66     V     0.125   0.1476   0.58
V67     V     0.125   0.6476   0.0799
V68     V     0.125   0.6476   0.58
V69     V     0.625   0.1476   0.0799
V70     V     0.625   0.1476   0.58
V71     V     0.625   0.6476   0.0799
V72     V     0.625   0.6476   0.58
V73     V     0.42   0.375   0.1476
V74     V     0.42   0.375   0.6476
V75     V     0.42   0.875   0.1476
V76     V     0.42   0.875   0.6476
V77     V     0.92   0.375   0.1476
V78     V     0.92   0.375   0.6476
V79     V     0.92   0.875   0.1476
V80     V     0.92   0.875   0.6476
V81     V     0.375   0.3524   0.0799
V82     V     0.375   0.3524   0.58
V83     V     0.375   0.8524   0.0799
V84     V     0.375   0.8524   0.58
V85     V     0.875   0.3524   0.0799
V86     V     0.875   0.3524   0.58
V87     V     0.875   0.8524   0.0799
V88     V     0.875   0.8524   0.58
V89     V     0.3524   0.42   0.125
V90     V     0.3524   0.42   0.625
V91     V     0.3524   0.92   0.125
V92     V     0.3524   0.92   0.625
V93     V     0.8524   0.42   0.125
V94     V     0.8524   0.42   0.625
V95     V     0.8524   0.92   0.125
V96     V     0.8524   0.92   0.625
V97     V     0.33   0.125   0.1024
V98     V     0.33   0.125   0.6024
V99     V     0.33   0.625   0.1024
V100     V     0.33   0.625   0.6024
V101     V     0.83   0.125   0.1024
V102     V     0.83   0.125   0.6024
V103     V     0.83   0.625   0.1024
V104     V     0.83   0.625   0.6024
V105     V     0.375   0.1024   0.17
V106     V     0.375   0.1024   0.67
V107     V     0.375   0.6024   0.17
V108     V     0.375   0.6024   0.67
V109     V     0.875   0.1024   0.17
V110     V     0.875   0.1024   0.67
V111     V     0.875   0.6024   0.17
V112     V     0.875   0.6024   0.67
V113     V     0.3976   0.17   0.125
V114     V     0.3976   0.17   0.625
V115     V     0.3976   0.67   0.125
V116     V     0.3976   0.67   0.625
V117     V     0.8976   0.17   0.125
V118     V     0.8976   0.17   0.625
V119     V     0.8976   0.67   0.125
V120     V     0.8976   0.67   0.625
V121     V     0.1024   0.17   0.375
V122     V     0.1024   0.17   0.875
V123     V     0.1024   0.67   0.375
V124     V     0.1024   0.67   0.875
V125     V     0.6024   0.17   0.375
V126     V     0.6024   0.17   0.875
V127     V     0.6024   0.67   0.375
V128     V     0.6024   0.67   0.875
V129     V     0.125   0.1024   0.33
V130     V     0.125   0.1024   0.83
V131     V     0.125   0.6024   0.33
V132     V     0.125   0.6024   0.83
V133     V     0.625   0.1024   0.33
V134     V     0.625   0.1024   0.83
V135     V     0.625   0.6024   0.33
V136     V     0.625   0.6024   0.83
V137     V     0.17   0.125   0.3976
V138     V     0.17   0.125   0.8976
V139     V     0.17   0.625   0.3976
V140     V     0.17   0.625   0.8976
V141     V     0.67   0.125   0.3976
V142     V     0.67   0.125   0.8976
V143     V     0.67   0.625   0.3976
V144     V     0.67   0.625   0.8976
V145     V     0.17   0.375   0.1024
V146     V     0.17   0.375   0.6024
V147     V     0.17   0.875   0.1024
V148     V     0.17   0.875   0.6024
V149     V     0.67   0.375   0.1024
V150     V     0.67   0.375   0.6024
V151     V     0.67   0.875   0.1024
V152     V     0.67   0.875   0.6024
V153     V     0.1024   0.33   0.125
V154     V     0.1024   0.33   0.625
V155     V     0.1024   0.83   0.125
V156     V     0.1024   0.83   0.625
V157     V     0.6024   0.33   0.125
V158     V     0.6024   0.33   0.625
V159     V     0.6024   0.83   0.125
V160     V     0.6024   0.83   0.625
V161     V     0.125   0.3976   0.17
V162     V     0.125   0.3976   0.67
V163     V     0.125   0.8976   0.17
V164     V     0.125   0.8976   0.67
V165     V     0.625   0.3976   0.17
V166     V     0.625   0.3976   0.67
V167     V     0.625   0.8976   0.17
V168     V     0.625   0.8976   0.67
V169     V     0.33   0.375   0.3976
V170     V     0.33   0.375   0.8976
V171     V     0.33   0.875   0.3976
V172     V     0.33   0.875   0.8976
V173     V     0.83   0.375   0.3976
V174     V     0.83   0.375   0.8976
V175     V     0.83   0.875   0.3976
V176     V     0.83   0.875   0.8976
V177     V     0.3976   0.33   0.375
V178     V     0.3976   0.33   0.875
V179     V     0.3976   0.83   0.375
V180     V     0.3976   0.83   0.875
V181     V     0.8976   0.33   0.375
V182     V     0.8976   0.33   0.875
V183     V     0.8976   0.83   0.375
V184     V     0.8976   0.83   0.875
V185     V     0.375   0.3976   0.33
V186     V     0.375   0.3976   0.83
V187     V     0.375   0.8976   0.33
V188     V     0.375   0.8976   0.83
V189     V     0.875   0.3976   0.33
V190     V     0.875   0.3976   0.83
V191     V     0.875   0.8976   0.33
V192     V     0.875   0.8976   0.83
loop_
_geom_bond_atom_site_label_1
_geom_bond_atom_site_label_2
_geom_bond_distance
_geom_bond_site_symmetry_2
_ccdc_geom_bond_type
V1     V169    10.0   .     S
V1     V106    10.0   .     S
V1     V92    10.0   1_545     S
V1     V91    10.0   1_545     S
V2     V170    10.0   .     S
V2     V105    10.0   1_556     S
V2     V91    10.0   1_546     S
V2     V92    10.0   1_545     S
V3     V171    10.0   .     S
V3     V108    10.0   .     S
V3     V90    10.0   .     S
V3     V89    10.0   .     S
V4     V172    10.0   .     S
V4     V107    10.0   1_556     S
V4     V89    10.0   1_556     S
V4     V90    10.0   .     S
V5     V173    10.0   .     S
V5     V110    10.0   .     S
V5     V96    10.0   1_545     S
V5     V95    10.0   1_545     S
V6     V174    10.0   .     S
V6     V109    10.0   1_556     S
V6     V95    10.0   1_546     S
V6     V96    10.0   1_545     S
V7     V175    10.0   .     S
V7     V112    10.0   .     S
V7     V94    10.0   .     S
V7     V93    10.0   .     S
V8     V176    10.0   .     S
V8     V111    10.0   1_556     S
V8     V93    10.0   1_556     S
V8     V94    10.0   .     S
V9     V113    10.0   .     S
V9     V141    10.0   .     S
V9     V70    10.0   .     S
V9     V66    10.0   .     S
V10     V114    10.0   .     S
V10     V142    10.0   .     S
V10     V69    10.0   1_556     S
V10     V65    10.0   1_556     S
V11     V115    10.0   .     S
V11     V143    10.0   .     S
V11     V72    10.0   .     S
V11     V68    10.0   .     S
V12     V116    10.0   .     S
V12     V144    10.0   .     S
V12     V71    10.0   1_556     S
V12     V67    10.0   1_556     S
V13     V117    10.0   .     S
V13     V137    10.0   1_655     S
V13     V66    10.0   1_655     S
V13     V70    10.0   .     S
V14     V118    10.0   .     S
V14     V138    10.0   1_655     S
V14     V65    10.0   1_656     S
V14     V69    10.0   1_556     S
V15     V119    10.0   .     S
V15     V139    10.0   1_655     S
V15     V68    10.0   1_655     S
V15     V72    10.0   .     S
V16     V120    10.0   .     S
V16     V140    10.0   1_655     S
V16     V67    10.0   1_656     S
V16     V71    10.0   1_556     S
V17     V129    10.0   .     S
V17     V179    10.0   1_545     S
V17     V31    10.0   1_545     S
V17     V29    10.0   .     S
V18     V130    10.0   .     S
V18     V180    10.0   1_545     S
V18     V32    10.0   1_545     S
V18     V30    10.0   .     S
V19     V131    10.0   .     S
V19     V177    10.0   .     S
V19     V29    10.0   .     S
V19     V31    10.0   .     S
V20     V132    10.0   .     S
V20     V178    10.0   .     S
V20     V30    10.0   .     S
V20     V32    10.0   .     S
V21     V133    10.0   .     S
V21     V183    10.0   1_545     S
V21     V27    10.0   1_645     S
V21     V25    10.0   1_655     S
V22     V134    10.0   .     S
V22     V184    10.0   1_545     S
V22     V28    10.0   1_645     S
V22     V26    10.0   1_655     S
V23     V135    10.0   .     S
V23     V181    10.0   .     S
V23     V25    10.0   1_655     S
V23     V27    10.0   1_655     S
V24     V136    10.0   .     S
V24     V182    10.0   .     S
V24     V26    10.0   1_655     S
V24     V28    10.0   1_655     S
V25     V185    10.0   .     S
V25     V123    10.0   .     S
V25     V23    10.0   1_455     S
V25     V21    10.0   1_455     S
V26     V186    10.0   .     S
V26     V124    10.0   .     S
V26     V24    10.0   1_455     S
V26     V22    10.0   1_455     S
V27     V187    10.0   .     S
V27     V121    10.0   1_565     S
V27     V21    10.0   1_465     S
V27     V23    10.0   1_455     S
V28     V188    10.0   .     S
V28     V122    10.0   1_565     S
V28     V22    10.0   1_465     S
V28     V24    10.0   1_455     S
V29     V189    10.0   .     S
V29     V127    10.0   .     S
V30     V190    10.0   .     S
V30     V128    10.0   .     S
V31     V191    10.0   .     S
V31     V125    10.0   1_565     S
V31     V17    10.0   1_565     S
V32     V192    10.0   .     S
V32     V126    10.0   1_565     S
V32     V18    10.0   1_565     S
V33     V137    10.0   .     S
V33     V162    10.0   .     S
V33     V60    10.0   .     S
V33     V59    10.0   .     S
V34     V138    10.0   .     S
V34     V161    10.0   1_556     S
V34     V59    10.0   1_556     S
V34     V60    10.0   .     S
V35     V139    10.0   .     S
V35     V164    10.0   .     S
V35     V58    10.0   1_565     S
V35     V57    10.0   1_565     S
V36     V140    10.0   .     S
V36     V163    10.0   1_556     S
V36     V57    10.0   1_566     S
V36     V58    10.0   1_565     S
V37     V141    10.0   .     S
V37     V166    10.0   .     S
V37     V64    10.0   .     S
V37     V63    10.0   .     S
V38     V142    10.0   .     S
V38     V165    10.0   1_556     S
V38     V63    10.0   1_556     S
V38     V64    10.0   .     S
V39     V143    10.0   .     S
V39     V168    10.0   .     S
V39     V62    10.0   1_565     S
V39     V61    10.0   1_565     S
V40     V144    10.0   .     S
V40     V167    10.0   1_556     S
V40     V61    10.0   1_566     S
V40     V62    10.0   1_565     S
V41     V153    10.0   .     S
V41     V173    10.0   1_455     S
V41     V86    10.0   1_455     S
V41     V82    10.0   .     S
V42     V154    10.0   .     S
V42     V174    10.0   1_455     S
V42     V85    10.0   1_456     S
V42     V81    10.0   1_556     S
V43     V155    10.0   .     S
V43     V175    10.0   1_455     S
V43     V88    10.0   1_455     S
V43     V84    10.0   .     S
V44     V156    10.0   .     S
V44     V176    10.0   1_455     S
V44     V87    10.0   1_456     S
V44     V83    10.0   1_556     S
V45     V157    10.0   .     S
V45     V169    10.0   .     S
V45     V82    10.0   .     S
V45     V86    10.0   .     S
V46     V158    10.0   .     S
V46     V170    10.0   .     S
V46     V81    10.0   1_556     S
V46     V85    10.0   1_556     S
V47     V159    10.0   .     S
V47     V171    10.0   .     S
V47     V84    10.0   .     S
V47     V88    10.0   .     S
V48     V160    10.0   .     S
V48     V172    10.0   .     S
V48     V83    10.0   1_556     S
V48     V87    10.0   1_556     S
V49     V105    10.0   .     S
V49     V79    10.0   1_445     S
V49     V155    10.0   1_545     S
V49     V77    10.0   1_455     S
V50     V106    10.0   .     S
V50     V80    10.0   1_445     S
V50     V156    10.0   1_545     S
V50     V78    10.0   1_455     S
V51     V107    10.0   .     S
V51     V77    10.0   1_455     S
V51     V153    10.0   .     S
V51     V79    10.0   1_455     S
V52     V108    10.0   .     S
V52     V78    10.0   1_455     S
V52     V154    10.0   .     S
V52     V80    10.0   1_455     S
V53     V109    10.0   .     S
V53     V75    10.0   1_545     S
V53     V159    10.0   1_545     S
V53     V73    10.0   .     S
V54     V110    10.0   .     S
V54     V76    10.0   1_545     S
V54     V160    10.0   1_545     S
V54     V74    10.0   .     S
V55     V111    10.0   .     S
V55     V73    10.0   .     S
V55     V157    10.0   .     S
V55     V75    10.0   .     S
V56     V112    10.0   .     S
V56     V74    10.0   .     S
V56     V158    10.0   .     S
V56     V76    10.0   .     S
V57     V145    10.0   .     S
V57     V130    10.0   1_554     S
V57     V36    10.0   1_544     S
V57     V35    10.0   1_545     S
V58     V146    10.0   .     S
V58     V129    10.0   .     S
V58     V35    10.0   1_545     S
V58     V36    10.0   1_545     S
V59     V147    10.0   .     S
V59     V132    10.0   1_554     S
V59     V34    10.0   1_554     S
V60     V148    10.0   .     S
V60     V131    10.0   .     S
V61     V149    10.0   .     S
V61     V134    10.0   1_554     S
V61     V40    10.0   1_544     S
V61     V39    10.0   1_545     S
V62     V150    10.0   .     S
V62     V133    10.0   .     S
V62     V39    10.0   1_545     S
V62     V40    10.0   1_545     S
V63     V151    10.0   .     S
V63     V136    10.0   1_554     S
V63     V38    10.0   1_554     S
V64     V152    10.0   .     S
V64     V135    10.0   .     S
V65     V121    10.0   .     S
V65     V101    10.0   1_455     S
V65     V14    10.0   1_454     S
V65     V10    10.0   1_554     S
V66     V122    10.0   .     S
V66     V102    10.0   1_455     S
V66     V13    10.0   1_455     S
V67     V123    10.0   .     S
V67     V103    10.0   1_455     S
V67     V16    10.0   1_454     S
V67     V12    10.0   1_554     S
V68     V124    10.0   .     S
V68     V104    10.0   1_455     S
V68     V15    10.0   1_455     S
V69     V125    10.0   .     S
V69     V97    10.0   .     S
V69     V10    10.0   1_554     S
V69     V14    10.0   1_554     S
V70     V126    10.0   .     S
V70     V98    10.0   .     S
V71     V127    10.0   .     S
V71     V99    10.0   .     S
V71     V12    10.0   1_554     S
V71     V16    10.0   1_554     S
V72     V128    10.0   .     S
V72     V100    10.0   .     S
V73     V161    10.0   .     S
V73     V115    10.0   .     S
V74     V162    10.0   .     S
V74     V116    10.0   .     S
V75     V163    10.0   .     S
V75     V113    10.0   1_565     S
V75     V53    10.0   1_565     S
V76     V164    10.0   .     S
V76     V114    10.0   1_565     S
V76     V54    10.0   1_565     S
V77     V165    10.0   .     S
V77     V119    10.0   .     S
V77     V51    10.0   1_655     S
V77     V49    10.0   1_655     S
V78     V166    10.0   .     S
V78     V120    10.0   .     S
V78     V52    10.0   1_655     S
V78     V50    10.0   1_655     S
V79     V167    10.0   .     S
V79     V117    10.0   1_565     S
V79     V49    10.0   1_665     S
V79     V51    10.0   1_655     S
V80     V168    10.0   .     S
V80     V118    10.0   1_565     S
V80     V50    10.0   1_665     S
V80     V52    10.0   1_655     S
V81     V177    10.0   .     S
V81     V149    10.0   .     S
V81     V46    10.0   1_554     S
V81     V42    10.0   1_554     S
V82     V178    10.0   .     S
V82     V150    10.0   .     S
V83     V179    10.0   .     S
V83     V151    10.0   .     S
V83     V48    10.0   1_554     S
V83     V44    10.0   1_554     S
V84     V180    10.0   .     S
V84     V152    10.0   .     S
V85     V181    10.0   .     S
V85     V145    10.0   1_655     S
V85     V42    10.0   1_654     S
V85     V46    10.0   1_554     S
V86     V182    10.0   .     S
V86     V146    10.0   1_655     S
V86     V41    10.0   1_655     S
V87     V183    10.0   .     S
V87     V147    10.0   1_655     S
V87     V44    10.0   1_654     S
V87     V48    10.0   1_554     S
V88     V184    10.0   .     S
V88     V148    10.0   1_655     S
V88     V43    10.0   1_655     S
V89     V97    10.0   .     S
V89     V186    10.0   1_554     S
V89     V4    10.0   1_554     S
V90     V98    10.0   .     S
V90     V185    10.0   .     S
V91     V99    10.0   .     S
V91     V188    10.0   1_554     S
V91     V2    10.0   1_564     S
V91     V1    10.0   1_565     S
V92     V100    10.0   .     S
V92     V187    10.0   .     S
V92     V1    10.0   1_565     S
V92     V2    10.0   1_565     S
V93     V101    10.0   .     S
V93     V190    10.0   1_554     S
V93     V8    10.0   1_554     S
V94     V102    10.0   .     S
V94     V189    10.0   .     S
V95     V103    10.0   .     S
V95     V192    10.0   1_554     S
V95     V6    10.0   1_564     S
V95     V5    10.0   1_565     S
V96     V104    10.0   .     S
V96     V191    10.0   .     S
V96     V5    10.0   1_565     S
V96     V6    10.0   1_565     S
V97     V145    10.0   .     S
V97     V147    10.0   1_545     S
V98     V146    10.0   .     S
V98     V148    10.0   1_545     S
V99     V147    10.0   .     S
V99     V145    10.0   .     S
V100     V148    10.0   .     S
V100     V146    10.0   .     S
V101     V149    10.0   .     S
V101     V65    10.0   1_655     S
V101     V151    10.0   1_545     S
V102     V150    10.0   .     S
V102     V66    10.0   1_655     S
V102     V152    10.0   1_545     S
V103     V151    10.0   .     S
V103     V67    10.0   1_655     S
V103     V149    10.0   .     S
V104     V152    10.0   .     S
V104     V68    10.0   1_655     S
V104     V150    10.0   .     S
V105     V129    10.0   .     S
V105     V2    10.0   1_554     S
V105     V133    10.0   .     S
V106     V130    10.0   .     S
V106     V134    10.0   .     S
V107     V131    10.0   .     S
V107     V4    10.0   1_554     S
V107     V135    10.0   .     S
V108     V132    10.0   .     S
V108     V136    10.0   .     S
V109     V133    10.0   .     S
V109     V6    10.0   1_554     S
V109     V129    10.0   1_655     S
V110     V134    10.0   .     S
V110     V130    10.0   1_655     S
V111     V135    10.0   .     S
V111     V8    10.0   1_554     S
V111     V131    10.0   1_655     S
V112     V136    10.0   .     S
V112     V132    10.0   1_655     S
V113     V177    10.0   .     S
V113     V75    10.0   1_545     S
V113     V178    10.0   1_554     S
V114     V178    10.0   .     S
V114     V76    10.0   1_545     S
V114     V177    10.0   .     S
V115     V179    10.0   .     S
V115     V180    10.0   1_554     S
V116     V180    10.0   .     S
V116     V179    10.0   .     S
V117     V181    10.0   .     S
V117     V79    10.0   1_545     S
V117     V182    10.0   1_554     S
V118     V182    10.0   .     S
V118     V80    10.0   1_545     S
V118     V181    10.0   .     S
V119     V183    10.0   .     S
V119     V184    10.0   1_554     S
V120     V184    10.0   .     S
V120     V183    10.0   .     S
V121     V153    10.0   .     S
V121     V27    10.0   1_545     S
V121     V154    10.0   .     S
V122     V154    10.0   .     S
V122     V28    10.0   1_545     S
V122     V153    10.0   1_556     S
V123     V155    10.0   .     S
V123     V156    10.0   .     S
V124     V156    10.0   .     S
V124     V155    10.0   1_556     S
V125     V157    10.0   .     S
V125     V31    10.0   1_545     S
V125     V158    10.0   .     S
V126     V158    10.0   .     S
V126     V32    10.0   1_545     S
V126     V157    10.0   1_556     S
V127     V159    10.0   .     S
V127     V160    10.0   .     S
V128     V160    10.0   .     S
V128     V159    10.0   1_556     S
V129     V109    10.0   1_455     S
V130     V57    10.0   1_556     S
V130     V110    10.0   1_455     S
V131     V111    10.0   1_455     S
V132     V59    10.0   1_556     S
V132     V112    10.0   1_455     S
V134     V61    10.0   1_556     S
V136     V63    10.0   1_556     S
V137     V169    10.0   .     S
V137     V13    10.0   1_455     S
V137     V171    10.0   1_545     S
V138     V170    10.0   .     S
V138     V14    10.0   1_455     S
V138     V172    10.0   1_545     S
V139     V171    10.0   .     S
V139     V15    10.0   1_455     S
V139     V169    10.0   .     S
V140     V172    10.0   .     S
V140     V16    10.0   1_455     S
V140     V170    10.0   .     S
V141     V173    10.0   .     S
V141     V175    10.0   1_545     S
V142     V174    10.0   .     S
V142     V176    10.0   1_545     S
V143     V175    10.0   .     S
V143     V173    10.0   .     S
V144     V176    10.0   .     S
V144     V174    10.0   .     S
V145     V85    10.0   1_455     S
V146     V86    10.0   1_455     S
V147     V87    10.0   1_455     S
V147     V97    10.0   1_565     S
V148     V88    10.0   1_455     S
V148     V98    10.0   1_565     S
V151     V101    10.0   1_565     S
V152     V102    10.0   1_565     S
V153     V122    10.0   1_554     S
V155     V49    10.0   1_565     S
V155     V124    10.0   1_554     S
V156     V50    10.0   1_565     S
V157     V126    10.0   1_554     S
V159     V53    10.0   1_565     S
V159     V128    10.0   1_554     S
V160     V54    10.0   1_565     S
V161     V185    10.0   .     S
V161     V34    10.0   1_554     S
V161     V189    10.0   1_455     S
V162     V186    10.0   .     S
V162     V190    10.0   1_455     S
V163     V187    10.0   .     S
V163     V36    10.0   1_554     S
V163     V191    10.0   1_455     S
V164     V188    10.0   .     S
V164     V192    10.0   1_455     S
V165     V189    10.0   .     S
V165     V38    10.0   1_554     S
V165     V185    10.0   .     S
V166     V190    10.0   .     S
V166     V186    10.0   .     S
V167     V191    10.0   .     S
V167     V40    10.0   1_554     S
V167     V187    10.0   .     S
V168     V192    10.0   .     S
V168     V188    10.0   .     S
V171     V137    10.0   1_565     S
V172     V138    10.0   1_565     S
V173     V41    10.0   1_655     S
V174     V42    10.0   1_655     S
V175     V43    10.0   1_655     S
V175     V141    10.0   1_565     S
V176     V44    10.0   1_655     S
V176     V142    10.0   1_565     S
V178     V113    10.0   1_556     S
V179     V17    10.0   1_565     S
V180     V18    10.0   1_565     S
V180     V115    10.0   1_556     S
V182     V117    10.0   1_556     S
V183     V21    10.0   1_565     S
V184     V22    10.0   1_565     S
V184     V119    10.0   1_556     S
V186     V89    10.0   1_556     S
V188     V91    10.0   1_556     S
V189     V161    10.0   1_655     S
V190     V93    10.0   1_556     S
V190     V162    10.0   1_655     S
V191     V163    10.0   1_655     S
V192     V95    10.0   1_556     S
V192     V164    10.0   1_655     S
