data_tfc-e
_audit_creation_date              2019-12-31
_audit_creation_method            'Pymatgen'
_symmetry_space_group_name_H-M    'P1'
_symmetry_Int_Tables_number       1
loop_
_symmetry_equiv_pos_as_xyz
  x,y,z
_cell_length_a                    55.5507
_cell_length_b                    39.9998
_cell_length_c                    34.0998
_cell_angle_alpha                 90.0
_cell_angle_beta                 90.0
_cell_angle_gamma                 90.0
loop_
_atom_site_label
_atom_site_type_symbol
_atom_site_fract_x
_atom_site_fract_y
_atom_site_fract_z
Ti1     Ti     0.5941   0.25   0.25
Ti2     Ti     0.5941   0.25   0.75
Ti3     Ti     0.5941   0.75   0.25
Ti4     Ti     0.5941   0.75   0.75
V5     V     0.5   0.25   0.0
V6     V     0.5   0.25   0.5
V7     V     0.5   0.75   0.0
V8     V     0.5   0.75   0.5
Ti9     Ti     0.4059   0.25   0.25
Ti10     Ti     0.4059   0.25   0.75
Ti11     Ti     0.4059   0.75   0.25
Ti12     Ti     0.4059   0.75   0.75
Er13     Er     0.25   0.375   0.25
Er14     Er     0.25   0.375   0.75
Er15     Er     0.25   0.875   0.25
Er16     Er     0.25   0.875   0.75
Er17     Er     0.25   0.125   0.25
Er18     Er     0.25   0.125   0.75
Er19     Er     0.25   0.625   0.25
Er20     Er     0.25   0.625   0.75
Er21     Er     0.75   0.375   0.25
Er22     Er     0.75   0.375   0.75
Er23     Er     0.75   0.875   0.25
Er24     Er     0.75   0.875   0.75
Er25     Er     0.75   0.125   0.25
Er26     Er     0.75   0.125   0.75
Er27     Er     0.75   0.625   0.25
Er28     Er     0.75   0.625   0.75
Ti29     Ti     0.0941   0.0   0.25
Ti30     Ti     0.0941   0.0   0.75
Ti31     Ti     0.0941   0.5   0.25
Ti32     Ti     0.0941   0.5   0.75
V33     V     0.0   0.0   0.0
V34     V     0.0   0.0   0.5
V35     V     0.0   0.5   0.0
V36     V     0.0   0.5   0.5
Ti37     Ti     0.9059   0.0   0.25
Ti38     Ti     0.9059   0.0   0.75
Ti39     Ti     0.9059   0.5   0.25
Ti40     Ti     0.9059   0.5   0.75
loop_
_geom_bond_atom_site_label_1
_geom_bond_atom_site_label_2
_geom_bond_distance
_geom_bond_site_symmetry_2
_ccdc_geom_bond_type
Ti1     V5    10.0   .     S
Ti1     V6    10.0   .     S
Ti1     Er25    10.0   .     S
Ti1     Er21    10.0   .     S
Ti2     V6    10.0   .     S
Ti2     V5    10.0   1_556     S
Ti2     Er26    10.0   .     S
Ti2     Er22    10.0   .     S
Ti3     V7    10.0   .     S
Ti3     V8    10.0   .     S
Ti3     Er27    10.0   .     S
Ti3     Er23    10.0   .     S
Ti4     V8    10.0   .     S
Ti4     V7    10.0   1_556     S
Ti4     Er28    10.0   .     S
Ti4     Er24    10.0   .     S
V5     Ti2    10.0   1_554     S
V5     Ti9    10.0   .     S
V5     Ti10    10.0   1_554     S
V6     Ti10    10.0   .     S
V6     Ti9    10.0   .     S
V7     Ti4    10.0   1_554     S
V7     Ti11    10.0   .     S
V7     Ti12    10.0   1_554     S
V8     Ti12    10.0   .     S
V8     Ti11    10.0   .     S
Ti9     Er13    10.0   .     S
Ti9     Er17    10.0   .     S
Ti10     Er14    10.0   .     S
Ti10     Er18    10.0   .     S
Ti10     V5    10.0   1_556     S
Ti11     Er15    10.0   .     S
Ti11     Er19    10.0   .     S
Ti12     Er16    10.0   .     S
Ti12     Er20    10.0   .     S
Ti12     V7    10.0   1_556     S
Er13     Ti31    10.0   .     S
Er13     Er19    10.0   .     S
Er13     Er17    10.0   .     S
Er14     Ti32    10.0   .     S
Er14     Er20    10.0   .     S
Er14     Er18    10.0   .     S
Er15     Ti29    10.0   1_565     S
Er15     Er17    10.0   1_565     S
Er15     Er19    10.0   .     S
Er16     Ti30    10.0   1_565     S
Er16     Er18    10.0   1_565     S
Er16     Er20    10.0   .     S
Er17     Ti29    10.0   .     S
Er17     Er15    10.0   1_545     S
Er18     Ti30    10.0   .     S
Er18     Er16    10.0   1_545     S
Er19     Ti31    10.0   .     S
Er20     Ti32    10.0   .     S
Er21     Er27    10.0   .     S
Er21     Er25    10.0   .     S
Er21     Ti39    10.0   .     S
Er22     Er28    10.0   .     S
Er22     Er26    10.0   .     S
Er22     Ti40    10.0   .     S
Er23     Er25    10.0   1_565     S
Er23     Er27    10.0   .     S
Er23     Ti37    10.0   1_565     S
Er24     Er26    10.0   1_565     S
Er24     Er28    10.0   .     S
Er24     Ti38    10.0   1_565     S
Er25     Er23    10.0   1_545     S
Er25     Ti37    10.0   .     S
Er26     Er24    10.0   1_545     S
Er26     Ti38    10.0   .     S
Er27     Ti39    10.0   .     S
Er28     Ti40    10.0   .     S
Ti29     Er15    10.0   1_545     S
Ti29     V33    10.0   .     S
Ti29     V34    10.0   .     S
Ti30     Er16    10.0   1_545     S
Ti30     V34    10.0   .     S
Ti30     V33    10.0   1_556     S
Ti31     V35    10.0   .     S
Ti31     V36    10.0   .     S
Ti32     V36    10.0   .     S
Ti32     V35    10.0   1_556     S
V33     Ti30    10.0   1_554     S
V33     Ti37    10.0   1_455     S
V33     Ti38    10.0   1_454     S
V34     Ti38    10.0   1_455     S
V34     Ti37    10.0   1_455     S
V35     Ti32    10.0   1_554     S
V35     Ti39    10.0   1_455     S
V35     Ti40    10.0   1_454     S
V36     Ti40    10.0   1_455     S
V36     Ti39    10.0   1_455     S
Ti37     Er23    10.0   1_545     S
Ti37     V33    10.0   1_655     S
Ti37     V34    10.0   1_655     S
Ti38     Er24    10.0   1_545     S
Ti38     V34    10.0   1_655     S
Ti38     V33    10.0   1_656     S
Ti39     V35    10.0   1_655     S
Ti39     V36    10.0   1_655     S
Ti40     V36    10.0   1_655     S
Ti40     V35    10.0   1_656     S
