data_tfc
_audit_creation_date              2019-12-31
_audit_creation_method            'Pymatgen'
_symmetry_space_group_name_H-M    'P1'
_symmetry_Int_Tables_number       1
loop_
_symmetry_equiv_pos_as_xyz
  x,y,z
_cell_length_a                    37.2556
_cell_length_b                    47.2806
_cell_length_c                    29.9997
_cell_angle_alpha                 90.0
_cell_angle_beta                 90.0
_cell_angle_gamma                 90.0
loop_
_atom_site_label
_atom_site_type_symbol
_atom_site_fract_x
_atom_site_fract_y
_atom_site_fract_z
Er1     Er     0.25   0.0   0.0
Er2     Er     0.25   0.0   0.3333
Er3     Er     0.25   0.0   0.6667
Er4     Er     0.75   0.0   0.0
Er5     Er     0.75   0.0   0.3333
Er6     Er     0.75   0.0   0.6667
V7     V     0.25   0.2115   0.0
V8     V     0.25   0.2115   0.3333
V9     V     0.25   0.2115   0.6667
V10     V     0.75   0.2115   0.0
V11     V     0.75   0.2115   0.3333
V12     V     0.75   0.2115   0.6667
V13     V     0.25   0.7885   0.0
V14     V     0.25   0.7885   0.3333
V15     V     0.25   0.7885   0.6667
V16     V     0.75   0.7885   0.0
V17     V     0.75   0.7885   0.3333
V18     V     0.75   0.7885   0.6667
V19     V     0.0   0.7115   0.0
V20     V     0.0   0.7115   0.3333
V21     V     0.0   0.7115   0.6667
V22     V     0.5   0.7115   0.0
V23     V     0.5   0.7115   0.3333
V24     V     0.5   0.7115   0.6667
V25     V     0.0   0.2885   0.0
V26     V     0.0   0.2885   0.3333
V27     V     0.0   0.2885   0.6667
V28     V     0.5   0.2885   0.0
V29     V     0.5   0.2885   0.3333
V30     V     0.5   0.2885   0.6667
Er31     Er     0.0   0.5   0.0
Er32     Er     0.0   0.5   0.3333
Er33     Er     0.0   0.5   0.6667
Er34     Er     0.5   0.5   0.0
Er35     Er     0.5   0.5   0.3333
Er36     Er     0.5   0.5   0.6667
loop_
_geom_bond_atom_site_label_1
_geom_bond_atom_site_label_2
_geom_bond_distance
_geom_bond_site_symmetry_2
_ccdc_geom_bond_type
Er1     V13    10.0   1_545     S
Er1     V7    10.0   .     S
Er1     Er2    10.0   .     S
Er1     Er3    10.0   1_554     S
Er2     V14    10.0   1_545     S
Er2     V8    10.0   .     S
Er2     Er3    10.0   .     S
Er3     V15    10.0   1_545     S
Er3     V9    10.0   .     S
Er3     Er1    10.0   1_556     S
Er4     V16    10.0   1_545     S
Er4     V10    10.0   .     S
Er4     Er5    10.0   .     S
Er4     Er6    10.0   1_554     S
Er5     V17    10.0   1_545     S
Er5     V11    10.0   .     S
Er5     Er6    10.0   .     S
Er6     V18    10.0   1_545     S
Er6     V12    10.0   .     S
Er6     Er4    10.0   1_556     S
V7     V25    10.0   .     S
V7     V28    10.0   .     S
V8     V26    10.0   .     S
V8     V29    10.0   .     S
V9     V27    10.0   .     S
V9     V30    10.0   .     S
V10     V28    10.0   .     S
V10     V25    10.0   1_655     S
V11     V29    10.0   .     S
V11     V26    10.0   1_655     S
V12     V30    10.0   .     S
V12     V27    10.0   1_655     S
V13     Er1    10.0   1_565     S
V13     V22    10.0   .     S
V13     V19    10.0   .     S
V14     Er2    10.0   1_565     S
V14     V23    10.0   .     S
V14     V20    10.0   .     S
V15     Er3    10.0   1_565     S
V15     V24    10.0   .     S
V15     V21    10.0   .     S
V16     Er4    10.0   1_565     S
V16     V19    10.0   1_655     S
V16     V22    10.0   .     S
V17     Er5    10.0   1_565     S
V17     V20    10.0   1_655     S
V17     V23    10.0   .     S
V18     Er6    10.0   1_565     S
V18     V21    10.0   1_655     S
V18     V24    10.0   .     S
V19     V16    10.0   1_455     S
V19     Er31    10.0   .     S
V20     V17    10.0   1_455     S
V20     Er32    10.0   .     S
V21     V18    10.0   1_455     S
V21     Er33    10.0   .     S
V22     Er34    10.0   .     S
V23     Er35    10.0   .     S
V24     Er36    10.0   .     S
V25     Er31    10.0   .     S
V25     V10    10.0   1_455     S
V26     Er32    10.0   .     S
V26     V11    10.0   1_455     S
V27     Er33    10.0   .     S
V27     V12    10.0   1_455     S
V28     Er34    10.0   .     S
V29     Er35    10.0   .     S
V30     Er36    10.0   .     S
Er31     Er32    10.0   .     S
Er31     Er33    10.0   1_554     S
Er32     Er33    10.0   .     S
Er33     Er31    10.0   1_556     S
Er34     Er35    10.0   .     S
Er34     Er36    10.0   1_554     S
Er35     Er36    10.0   .     S
Er36     Er34    10.0   1_556     S
