data_tfi
_audit_creation_date              2019-12-31
_audit_creation_method            'Pymatgen'
_symmetry_space_group_name_H-M    'P1'
_symmetry_Int_Tables_number       1
loop_
_symmetry_equiv_pos_as_xyz
  x,y,z
_cell_length_a                    36.0468
_cell_length_b                    36.0468
_cell_length_c                    37.3387
_cell_angle_alpha                 90.0
_cell_angle_beta                 90.0
_cell_angle_gamma                 90.0
loop_
_atom_site_label
_atom_site_type_symbol
_atom_site_fract_x
_atom_site_fract_y
_atom_site_fract_z
Er1     Er     0.25   0.0   0.6339
Er2     Er     0.25   0.5   0.6339
Er3     Er     0.75   0.0   0.6339
Er4     Er     0.75   0.5   0.6339
Er5     Er     0.25   0.0   0.3661
Er6     Er     0.25   0.5   0.3661
Er7     Er     0.75   0.0   0.3661
Er8     Er     0.75   0.5   0.3661
V9     V     0.0   0.0   0.25
V10     V     0.0   0.5   0.25
V11     V     0.5   0.0   0.25
V12     V     0.5   0.5   0.25
V13     V     0.0   0.0   0.75
V14     V     0.0   0.5   0.75
V15     V     0.5   0.0   0.75
V16     V     0.5   0.5   0.75
Er17     Er     0.0   0.25   0.1339
Er18     Er     0.0   0.75   0.1339
Er19     Er     0.5   0.25   0.1339
Er20     Er     0.5   0.75   0.1339
Er21     Er     0.0   0.25   0.8661
Er22     Er     0.0   0.75   0.8661
Er23     Er     0.5   0.25   0.8661
Er24     Er     0.5   0.75   0.8661
loop_
_geom_bond_atom_site_label_1
_geom_bond_atom_site_label_2
_geom_bond_distance
_geom_bond_site_symmetry_2
_ccdc_geom_bond_type
Er1     Er5    10.0   .     S
Er1     V15    10.0   .     S
Er1     V13    10.0   .     S
Er2     Er6    10.0   .     S
Er2     V16    10.0   .     S
Er2     V14    10.0   .     S
Er3     Er7    10.0   .     S
Er3     V13    10.0   1_655     S
Er3     V15    10.0   .     S
Er4     Er8    10.0   .     S
Er4     V14    10.0   1_655     S
Er4     V16    10.0   .     S
Er5     V9    10.0   .     S
Er5     V11    10.0   .     S
Er6     V10    10.0   .     S
Er6     V12    10.0   .     S
Er7     V11    10.0   .     S
Er7     V9    10.0   1_655     S
Er8     V12    10.0   .     S
Er8     V10    10.0   1_655     S
V9     Er7    10.0   1_455     S
V9     Er17    10.0   .     S
V9     Er18    10.0   1_545     S
V10     Er8    10.0   1_455     S
V10     Er18    10.0   .     S
V10     Er17    10.0   .     S
V11     Er19    10.0   .     S
V11     Er20    10.0   1_545     S
V12     Er20    10.0   .     S
V12     Er19    10.0   .     S
V13     Er22    10.0   1_545     S
V13     Er3    10.0   1_455     S
V13     Er21    10.0   .     S
V14     Er21    10.0   .     S
V14     Er4    10.0   1_455     S
V14     Er22    10.0   .     S
V15     Er24    10.0   1_545     S
V15     Er23    10.0   .     S
V16     Er23    10.0   .     S
V16     Er24    10.0   .     S
Er17     Er21    10.0   1_554     S
Er18     V9    10.0   1_565     S
Er18     Er22    10.0   1_554     S
Er19     Er23    10.0   1_554     S
Er20     V11    10.0   1_565     S
Er20     Er24    10.0   1_554     S
Er21     Er17    10.0   1_556     S
Er22     V13    10.0   1_565     S
Er22     Er18    10.0   1_556     S
Er23     Er19    10.0   1_556     S
Er24     V15    10.0   1_565     S
Er24     Er20    10.0   1_556     S
