data_tfn
_audit_creation_date              2019-12-31
_audit_creation_method            'Pymatgen'
_symmetry_space_group_name_H-M    'P1'
_symmetry_Int_Tables_number       1
loop_
_symmetry_equiv_pos_as_xyz
  x,y,z
_cell_length_a                    25.7793
_cell_length_b                    25.7793
_cell_length_c                    40.0002
_cell_angle_alpha                 90.0
_cell_angle_beta                 90.0
_cell_angle_gamma                 90.0
loop_
_atom_site_label
_atom_site_type_symbol
_atom_site_fract_x
_atom_site_fract_y
_atom_site_fract_z
Er1     Er     0.6372   0.3628   0.0
Er2     Er     0.6372   0.3628   0.5
Er3     Er     0.8629   0.8629   0.25
Er4     Er     0.8629   0.8629   0.75
Er5     Er     0.3628   0.6372   0.0
Er6     Er     0.3628   0.6372   0.5
V7     V     0.5   0.0   0.25
V8     V     0.5   0.0   0.75
V9     V     0.5   0.0   0.0
V10     V     0.5   0.0   0.5
Er11     Er     0.1372   0.1372   0.25
Er12     Er     0.1372   0.1372   0.75
V13     V     0.0   0.5   0.25
V14     V     0.0   0.5   0.75
V15     V     0.0   0.5   0.0
V16     V     0.0   0.5   0.5
loop_
_geom_bond_atom_site_label_1
_geom_bond_atom_site_label_2
_geom_bond_distance
_geom_bond_site_symmetry_2
_ccdc_geom_bond_type
Er1     V9    10.0   .     S
Er1     V15    10.0   1_655     S
Er1     Er5    10.0   .     S
Er2     V10    10.0   .     S
Er2     V16    10.0   1_655     S
Er2     Er6    10.0   .     S
Er3     V13    10.0   1_655     S
Er3     V7    10.0   1_565     S
Er3     Er11    10.0   1_665     S
Er4     V14    10.0   1_655     S
Er4     V8    10.0   1_565     S
Er4     Er12    10.0   1_665     S
Er5     V15    10.0   .     S
Er5     V9    10.0   1_565     S
Er6     V16    10.0   .     S
Er6     V10    10.0   1_565     S
V7     Er3    10.0   1_545     S
V7     V10    10.0   .     S
V7     V9    10.0   .     S
V7     Er11    10.0   .     S
V8     Er4    10.0   1_545     S
V8     V9    10.0   1_556     S
V8     V10    10.0   .     S
V8     Er12    10.0   .     S
V9     Er5    10.0   1_545     S
V9     V8    10.0   1_554     S
V10     Er6    10.0   1_545     S
Er11     V13    10.0   .     S
Er11     Er3    10.0   1_445     S
Er12     V14    10.0   .     S
Er12     Er4    10.0   1_445     S
V13     Er3    10.0   1_455     S
V13     V16    10.0   .     S
V13     V15    10.0   .     S
V14     Er4    10.0   1_455     S
V14     V15    10.0   1_556     S
V14     V16    10.0   .     S
V15     Er1    10.0   1_455     S
V15     V14    10.0   1_554     S
V16     Er2    10.0   1_455     S
