data_tfo
_audit_creation_date              2019-12-31
_audit_creation_method            'Pymatgen'
_symmetry_space_group_name_H-M    'P1'
_symmetry_Int_Tables_number       1
loop_
_symmetry_equiv_pos_as_xyz
  x,y,z
_cell_length_a                    39.9998
_cell_length_b                    43.382
_cell_length_c                    32.4544
_cell_angle_alpha                 90.0
_cell_angle_beta                 90.0
_cell_angle_gamma                 90.0
loop_
_atom_site_label
_atom_site_type_symbol
_atom_site_fract_x
_atom_site_fract_y
_atom_site_fract_z
Er1     Er     0.25   0.75   0.25
Er2     Er     0.75   0.75   0.25
Er3     Er     0.0   0.75   0.25
Er4     Er     0.5   0.75   0.25
Er5     Er     0.25   0.25   0.75
Er6     Er     0.75   0.25   0.75
Er7     Er     0.0   0.25   0.75
Er8     Er     0.5   0.25   0.75
Er9     Er     0.25   0.75   0.75
Er10     Er     0.75   0.75   0.75
Er11     Er     0.0   0.75   0.75
Er12     Er     0.5   0.75   0.75
V13     V     0.25   0.8848   0.0
V14     V     0.75   0.8848   0.0
V15     V     0.25   0.1152   0.0
V16     V     0.75   0.1152   0.0
V17     V     0.25   0.3848   0.5
V18     V     0.75   0.3848   0.5
V19     V     0.25   0.6153   0.5
V20     V     0.75   0.6153   0.5
V21     V     0.0   0.8848   0.5
V22     V     0.5   0.8848   0.5
V23     V     0.0   0.1152   0.5
V24     V     0.5   0.1152   0.5
V25     V     0.0   0.3848   0.0
V26     V     0.5   0.3848   0.0
V27     V     0.0   0.6153   0.0
V28     V     0.5   0.6153   0.0
Er29     Er     0.25   0.25   0.25
Er30     Er     0.75   0.25   0.25
Er31     Er     0.0   0.25   0.25
Er32     Er     0.5   0.25   0.25
loop_
_geom_bond_atom_site_label_1
_geom_bond_atom_site_label_2
_geom_bond_distance
_geom_bond_site_symmetry_2
_ccdc_geom_bond_type
Er1     V19    10.0   .     S
Er1     V13    10.0   .     S
Er1     Er4    10.0   .     S
Er1     Er3    10.0   .     S
Er2     V20    10.0   .     S
Er2     V14    10.0   .     S
Er2     Er3    10.0   1_655     S
Er2     Er4    10.0   .     S
Er3     V27    10.0   .     S
Er3     V21    10.0   .     S
Er3     Er2    10.0   1_455     S
Er4     V28    10.0   .     S
Er4     V22    10.0   .     S
Er5     V15    10.0   1_556     S
Er5     V17    10.0   .     S
Er5     Er8    10.0   .     S
Er5     Er7    10.0   .     S
Er6     V16    10.0   1_556     S
Er6     V18    10.0   .     S
Er6     Er7    10.0   1_655     S
Er6     Er8    10.0   .     S
Er7     V25    10.0   1_556     S
Er7     V23    10.0   .     S
Er7     Er6    10.0   1_455     S
Er8     V26    10.0   1_556     S
Er8     V24    10.0   .     S
Er9     V19    10.0   .     S
Er9     V13    10.0   1_556     S
Er9     Er12    10.0   .     S
Er9     Er11    10.0   .     S
Er10     V20    10.0   .     S
Er10     V14    10.0   1_556     S
Er10     Er11    10.0   1_655     S
Er10     Er12    10.0   .     S
Er11     V27    10.0   1_556     S
Er11     V21    10.0   .     S
Er11     Er10    10.0   1_455     S
Er12     V28    10.0   1_556     S
Er12     V22    10.0   .     S
V13     Er9    10.0   1_554     S
V13     V15    10.0   1_565     S
V14     Er10    10.0   1_554     S
V14     V16    10.0   1_565     S
V15     Er5    10.0   1_554     S
V15     V13    10.0   1_545     S
V15     Er29    10.0   .     S
V16     Er6    10.0   1_554     S
V16     V14    10.0   1_545     S
V16     Er30    10.0   .     S
V17     V19    10.0   .     S
V17     Er29    10.0   .     S
V18     V20    10.0   .     S
V18     Er30    10.0   .     S
V21     V23    10.0   1_565     S
V22     V24    10.0   1_565     S
V23     V21    10.0   1_545     S
V23     Er31    10.0   .     S
V24     V22    10.0   1_545     S
V24     Er32    10.0   .     S
V25     Er7    10.0   1_554     S
V25     V27    10.0   .     S
V25     Er31    10.0   .     S
V26     Er8    10.0   1_554     S
V26     V28    10.0   .     S
V26     Er32    10.0   .     S
V27     Er11    10.0   1_554     S
V28     Er12    10.0   1_554     S
Er29     Er32    10.0   .     S
Er29     Er31    10.0   .     S
Er30     Er31    10.0   1_655     S
Er30     Er32    10.0   .     S
Er31     Er30    10.0   1_455     S
