data_tfp
_audit_creation_date              2019-12-31
_audit_creation_method            'Pymatgen'
_symmetry_space_group_name_H-M    'P1'
_symmetry_Int_Tables_number       1
loop_
_symmetry_equiv_pos_as_xyz
  x,y,z
_cell_length_a                    57.7221
_cell_length_b                    57.7221
_cell_length_c                    29.8276
_cell_angle_alpha                 90.0
_cell_angle_beta                 90.0
_cell_angle_gamma                 120.0
loop_
_atom_site_label
_atom_site_type_symbol
_atom_site_fract_x
_atom_site_fract_y
_atom_site_fract_z
Er1     Er     0.5   0.5   0.25
Er2     Er     0.5   0.5   0.75
Ti3     Ti     0.8667   0.4334   0.0
Ti4     Ti     0.8667   0.4334   0.5
Ti5     Ti     0.5666   0.4334   0.0
Ti6     Ti     0.5666   0.4334   0.5
V7     V     0.6667   0.3333   0.0
V8     V     0.6667   0.3333   0.5
Ti9     Ti     0.5666   0.1333   0.0
Ti10     Ti     0.5666   0.1333   0.5
Er11     Er     0.5   0.0   0.25
Er12     Er     0.5   0.0   0.75
Er13     Er     0.0   0.5   0.25
Er14     Er     0.0   0.5   0.75
Ti15     Ti     0.4334   0.5666   0.0
Ti16     Ti     0.4334   0.5666   0.5
V17     V     0.3333   0.6667   0.0
V18     V     0.3333   0.6667   0.5
Ti19     Ti     0.1333   0.5666   0.0
Ti20     Ti     0.1333   0.5666   0.5
Ti21     Ti     0.4334   0.8667   0.0
Ti22     Ti     0.4334   0.8667   0.5
loop_
_geom_bond_atom_site_label_1
_geom_bond_atom_site_label_2
_geom_bond_distance
_geom_bond_site_symmetry_2
_ccdc_geom_bond_type
Er1     Ti15    10.0   .     S
Er1     Ti16    10.0   .     S
Er1     Ti6    10.0   .     S
Er1     Ti5    10.0   .     S
Er2     Ti16    10.0   .     S
Er2     Ti15    10.0   1_556     S
Er2     Ti5    10.0   1_556     S
Er2     Ti6    10.0   .     S
Ti3     V7    10.0   .     S
Ti3     Er13    10.0   1_655     S
Ti3     Er14    10.0   1_654     S
Ti4     V8    10.0   .     S
Ti4     Er14    10.0   1_655     S
Ti4     Er13    10.0   1_655     S
Ti5     Er2    10.0   1_554     S
Ti5     V7    10.0   .     S
Ti6     V8    10.0   .     S
V7     Ti9    10.0   .     S
V8     Ti10    10.0   .     S
Ti9     Er11    10.0   .     S
Ti9     Er12    10.0   1_554     S
Ti10     Er12    10.0   .     S
Ti10     Er11    10.0   .     S
Er11     Ti22    10.0   1_545     S
Er11     Ti21    10.0   1_545     S
Er12     Ti21    10.0   1_546     S
Er12     Ti22    10.0   1_545     S
Er12     Ti9    10.0   1_556     S
Er13     Ti3    10.0   1_455     S
Er13     Ti4    10.0   1_455     S
Er13     Ti19    10.0   .     S
Er13     Ti20    10.0   .     S
Er14     Ti4    10.0   1_455     S
Er14     Ti3    10.0   1_456     S
Er14     Ti20    10.0   .     S
Er14     Ti19    10.0   1_556     S
Ti15     Er2    10.0   1_554     S
Ti15     V17    10.0   .     S
Ti16     V18    10.0   .     S
V17     Ti19    10.0   .     S
V17     Ti21    10.0   .     S
V18     Ti20    10.0   .     S
V18     Ti22    10.0   .     S
Ti19     Er14    10.0   1_554     S
Ti21     Er12    10.0   1_564     S
Ti21     Er11    10.0   1_565     S
Ti22     Er11    10.0   1_565     S
Ti22     Er12    10.0   1_565     S
