data_tfq
_audit_creation_date              2019-12-31
_audit_creation_method            'Pymatgen'
_symmetry_space_group_name_H-M    'P1'
_symmetry_Int_Tables_number       1
loop_
_symmetry_equiv_pos_as_xyz
  x,y,z
_cell_length_a                    36.033
_cell_length_b                    36.033
_cell_length_c                    56.0506
_cell_angle_alpha                 90.0
_cell_angle_beta                 90.0
_cell_angle_gamma                 120.0
loop_
_atom_site_label
_atom_site_type_symbol
_atom_site_fract_x
_atom_site_fract_y
_atom_site_fract_z
V1     V     0.0   0.25   0.7441
V2     V     0.0   0.75   0.7441
V3     V     0.5   0.25   0.7441
V4     V     0.5   0.75   0.7441
V5     V     0.25   0.0   0.5892
V6     V     0.25   0.5   0.5892
V7     V     0.75   0.0   0.5892
V8     V     0.75   0.5   0.5892
Er9     Er     0.25   0.25   0.6667
Er10     Er     0.25   0.75   0.6667
Er11     Er     0.75   0.25   0.6667
Er12     Er     0.75   0.75   0.6667
V13     V     0.25   0.0   0.4108
V14     V     0.25   0.5   0.4108
V15     V     0.75   0.0   0.4108
V16     V     0.75   0.5   0.4108
V17     V     0.25   0.25   0.2559
V18     V     0.25   0.75   0.2559
V19     V     0.75   0.25   0.2559
V20     V     0.75   0.75   0.2559
Er21     Er     0.0   0.25   0.3333
Er22     Er     0.0   0.75   0.3333
Er23     Er     0.5   0.25   0.3333
Er24     Er     0.5   0.75   0.3333
V25     V     0.0   0.25   0.9225
V26     V     0.0   0.75   0.9225
V27     V     0.5   0.25   0.9225
V28     V     0.5   0.75   0.9225
V29     V     0.25   0.25   0.0775
V30     V     0.25   0.75   0.0775
V31     V     0.75   0.25   0.0775
V32     V     0.75   0.75   0.0775
Er33     Er     0.25   0.0   0.0
Er34     Er     0.25   0.5   0.0
Er35     Er     0.75   0.0   0.0
Er36     Er     0.75   0.5   0.0
loop_
_geom_bond_atom_site_label_1
_geom_bond_atom_site_label_2
_geom_bond_distance
_geom_bond_site_symmetry_2
_ccdc_geom_bond_type
V1     Er9    10.0   .     S
V1     Er11    10.0   1_455     S
V1     V25    10.001   .     S
V2     Er10    10.0   .     S
V2     Er12    10.0   1_455     S
V2     V26    10.001   .     S
V3     Er11    10.0   .     S
V3     Er9    10.0   .     S
V3     V27    10.001   .     S
V4     Er12    10.0   .     S
V4     Er10    10.0   .     S
V4     V28    10.001   .     S
V5     Er9    10.0   .     S
V5     Er10    10.0   1_545     S
V5     V13    10.001   .     S
V6     Er10    10.0   .     S
V6     Er9    10.0   .     S
V6     V14    10.001   .     S
V7     Er11    10.0   .     S
V7     Er12    10.0   1_545     S
V7     V15    10.001   .     S
V8     Er12    10.0   .     S
V8     Er11    10.0   .     S
V8     V16    10.001   .     S
Er10     V5    10.0   1_565     S
Er11     V1    10.0   1_655     S
Er12     V2    10.0   1_655     S
Er12     V7    10.0   1_565     S
V13     Er23    10.0   .     S
V13     Er22    10.0   1_545     S
V14     Er24    10.0   .     S
V14     Er21    10.0   .     S
V15     Er21    10.0   1_655     S
V15     Er24    10.0   1_545     S
V16     Er22    10.0   1_655     S
V16     Er23    10.0   .     S
V17     Er23    10.0   .     S
V17     Er21    10.0   .     S
V17     V29    10.001   .     S
V18     Er24    10.0   .     S
V18     Er22    10.0   .     S
V18     V30    10.001   .     S
V19     Er21    10.0   1_655     S
V19     Er23    10.0   .     S
V19     V31    10.001   .     S
V20     Er22    10.0   1_655     S
V20     Er24    10.0   .     S
V20     V32    10.001   .     S
Er21     V15    10.0   1_455     S
Er21     V19    10.0   1_455     S
Er22     V16    10.0   1_455     S
Er22     V13    10.0   1_565     S
Er22     V20    10.0   1_455     S
Er24     V15    10.0   1_565     S
V25     Er34    10.0   1_556     S
V25     Er35    10.0   1_456     S
V26     Er33    10.0   1_566     S
V26     Er36    10.0   1_456     S
V27     Er36    10.0   1_556     S
V27     Er33    10.0   1_556     S
V28     Er35    10.0   1_566     S
V28     Er34    10.0   1_556     S
V29     Er33    10.0   .     S
V29     Er34    10.0   .     S
V30     Er34    10.0   .     S
V30     Er33    10.0   1_565     S
V31     Er35    10.0   .     S
V31     Er36    10.0   .     S
V32     Er36    10.0   .     S
V32     Er35    10.0   1_565     S
Er33     V26    10.0   1_544     S
Er33     V27    10.0   1_554     S
Er33     V30    10.0   1_545     S
Er34     V25    10.0   1_554     S
Er34     V28    10.0   1_554     S
Er35     V28    10.0   1_544     S
Er35     V25    10.0   1_654     S
Er35     V32    10.0   1_545     S
Er36     V27    10.0   1_554     S
Er36     V26    10.0   1_654     S
