data_tfz-d
_audit_creation_date              2019-12-31
_audit_creation_method            'Pymatgen'
_symmetry_space_group_name_H-M    'P1'
_symmetry_Int_Tables_number       1
loop_
_symmetry_equiv_pos_as_xyz
  x,y,z
_cell_length_a                    34.641
_cell_length_b                    34.641
_cell_length_c                    30.0003
_cell_angle_alpha                 90.0
_cell_angle_beta                 90.0
_cell_angle_gamma                 120.0
loop_
_atom_site_label
_atom_site_type_symbol
_atom_site_fract_x
_atom_site_fract_y
_atom_site_fract_z
Er1     Er     0.3333   0.1667   0.0
Er2     Er     0.3333   0.1667   0.3333
Er3     Er     0.3333   0.1667   0.6667
Er4     Er     0.3333   0.6667   0.0
Er5     Er     0.3333   0.6667   0.3333
Er6     Er     0.3333   0.6667   0.6667
Er7     Er     0.8333   0.1667   0.0
Er8     Er     0.8333   0.1667   0.3333
Er9     Er     0.8333   0.1667   0.6667
Er10     Er     0.8333   0.6667   0.0
Er11     Er     0.8333   0.6667   0.3333
Er12     Er     0.8333   0.6667   0.6667
Er13     Er     0.1667   0.3333   0.0
Er14     Er     0.1667   0.3333   0.3333
Er15     Er     0.1667   0.3333   0.6667
Er16     Er     0.1667   0.8333   0.0
Er17     Er     0.1667   0.8333   0.3333
Er18     Er     0.1667   0.8333   0.6667
Er19     Er     0.6667   0.3333   0.0
Er20     Er     0.6667   0.3333   0.3333
Er21     Er     0.6667   0.3333   0.6667
Er22     Er     0.6667   0.8333   0.0
Er23     Er     0.6667   0.8333   0.3333
Er24     Er     0.6667   0.8333   0.6667
V25     V     0.0   0.0   0.0
V26     V     0.0   0.0   0.3333
V27     V     0.0   0.0   0.6667
V28     V     1.0   0.5   0.0
V29     V     1.0   0.5   0.3333
V30     V     1.0   0.5   0.6667
V31     V     0.5   0.0   0.0
V32     V     0.5   0.0   0.3333
V33     V     0.5   0.0   0.6667
V34     V     0.5   0.5   0.0
V35     V     0.5   0.5   0.3333
V36     V     0.5   0.5   0.6667
loop_
_geom_bond_atom_site_label_1
_geom_bond_atom_site_label_2
_geom_bond_distance
_geom_bond_site_symmetry_2
_ccdc_geom_bond_type
Er1     V25    10.0   .     S
Er1     V34    10.0   .     S
Er1     V31    10.0   .     S
Er2     V26    10.0   .     S
Er2     V35    10.0   .     S
Er2     V32    10.0   .     S
Er3     V27    10.0   .     S
Er3     V36    10.0   .     S
Er3     V33    10.0   .     S
Er4     V28    10.0   1_455     S
Er4     V31    10.0   1_565     S
Er4     V34    10.0   .     S
Er5     V29    10.0   1_455     S
Er5     V32    10.0   1_565     S
Er5     V35    10.0   .     S
Er6     V30    10.0   1_455     S
Er6     V33    10.0   1_565     S
Er6     V36    10.0   .     S
Er7     V31    10.0   .     S
Er7     V28    10.0   .     S
Er7     V25    10.0   1_655     S
Er8     V32    10.0   .     S
Er8     V29    10.0   .     S
Er8     V26    10.0   1_655     S
Er9     V33    10.0   .     S
Er9     V30    10.0   .     S
Er9     V27    10.0   1_655     S
Er10     V34    10.0   .     S
Er10     V25    10.0   1_665     S
Er10     V28    10.0   .     S
Er11     V35    10.0   .     S
Er11     V26    10.0   1_665     S
Er11     V29    10.0   .     S
Er12     V36    10.0   .     S
Er12     V27    10.0   1_665     S
Er12     V30    10.0   .     S
Er13     V28    10.0   1_455     S
Er13     V34    10.0   .     S
Er13     V25    10.0   .     S
Er14     V29    10.0   1_455     S
Er14     V35    10.0   .     S
Er14     V26    10.0   .     S
Er15     V30    10.0   1_455     S
Er15     V36    10.0   .     S
Er15     V27    10.0   .     S
Er16     V25    10.0   1_565     S
Er16     V31    10.0   1_565     S
Er16     V28    10.0   1_455     S
Er17     V26    10.0   1_565     S
Er17     V32    10.0   1_565     S
Er17     V29    10.0   1_455     S
Er18     V27    10.0   1_565     S
Er18     V33    10.0   1_565     S
Er18     V30    10.0   1_455     S
Er19     V34    10.0   .     S
Er19     V28    10.0   .     S
Er19     V31    10.0   .     S
Er20     V35    10.0   .     S
Er20     V29    10.0   .     S
Er20     V32    10.0   .     S
Er21     V36    10.0   .     S
Er21     V30    10.0   .     S
Er21     V33    10.0   .     S
Er22     V31    10.0   1_565     S
Er22     V25    10.0   1_665     S
Er22     V34    10.0   .     S
Er23     V32    10.0   1_565     S
Er23     V26    10.0   1_665     S
Er23     V35    10.0   .     S
Er24     V33    10.0   1_565     S
Er24     V27    10.0   1_665     S
Er24     V36    10.0   .     S
V25     Er10    10.0   1_445     S
V25     Er7    10.0   1_455     S
V25     Er16    10.0   1_545     S
V25     Er22    10.0   1_445     S
V25     V26    10.0   .     S
V25     V27    10.0   1_554     S
V26     Er11    10.0   1_445     S
V26     Er8    10.0   1_455     S
V26     Er17    10.0   1_545     S
V26     Er23    10.0   1_445     S
V26     V27    10.0   .     S
V27     Er12    10.0   1_445     S
V27     Er9    10.0   1_455     S
V27     Er18    10.0   1_545     S
V27     Er24    10.0   1_445     S
V27     V25    10.0   1_556     S
V28     Er4    10.0   1_655     S
V28     Er13    10.0   1_655     S
V28     Er16    10.0   1_655     S
V28     V29    10.0   .     S
V28     V30    10.0   1_554     S
V29     Er5    10.0   1_655     S
V29     Er14    10.0   1_655     S
V29     Er17    10.0   1_655     S
V29     V30    10.0   .     S
V30     Er6    10.0   1_655     S
V30     Er15    10.0   1_655     S
V30     Er18    10.0   1_655     S
V30     V28    10.0   1_556     S
V31     Er4    10.0   1_545     S
V31     Er22    10.0   1_545     S
V31     Er16    10.0   1_545     S
V31     V32    10.0   .     S
V31     V33    10.0   1_554     S
V32     Er5    10.0   1_545     S
V32     Er23    10.0   1_545     S
V32     Er17    10.0   1_545     S
V32     V33    10.0   .     S
V33     Er6    10.0   1_545     S
V33     Er24    10.0   1_545     S
V33     Er18    10.0   1_545     S
V33     V31    10.0   1_556     S
V34     V35    10.0   .     S
V34     V36    10.0   1_554     S
V35     V36    10.0   .     S
V36     V34    10.0   1_556     S
