data_tfz
_audit_creation_date              2019-12-31
_audit_creation_method            'Pymatgen'
_symmetry_space_group_name_H-M    'P1'
_symmetry_Int_Tables_number       1
loop_
_symmetry_equiv_pos_as_xyz
  x,y,z
_cell_length_a                    34.641
_cell_length_b                    34.641
_cell_length_c                    30.0
_cell_angle_alpha                 90.0
_cell_angle_beta                 90.0
_cell_angle_gamma                 120.0
loop_
_atom_site_label
_atom_site_type_symbol
_atom_site_fract_x
_atom_site_fract_y
_atom_site_fract_z
V1     V     0.6667   0.3333   0.0
V2     V     0.6667   0.3333   0.3333
V3     V     0.6667   0.3333   0.6667
Er4     Er     1.0   0.5   0.0
Er5     Er     1.0   0.5   0.3333
Er6     Er     1.0   0.5   0.6667
Er7     Er     0.5   0.0   0.0
Er8     Er     0.5   0.0   0.3333
Er9     Er     0.5   0.0   0.6667
V10     V     0.3333   0.6667   0.0
V11     V     0.3333   0.6667   0.3333
V12     V     0.3333   0.6667   0.6667
Er13     Er     0.5   0.5   0.0
Er14     Er     0.5   0.5   0.3333
Er15     Er     0.5   0.5   0.6667
loop_
_geom_bond_atom_site_label_1
_geom_bond_atom_site_label_2
_geom_bond_distance
_geom_bond_site_symmetry_2
_ccdc_geom_bond_type
V1     Er4    10.0   .     S
V1     Er13    10.0   .     S
V1     Er7    10.0   .     S
V2     Er5    10.0   .     S
V2     Er14    10.0   .     S
V2     Er8    10.0   .     S
V3     Er6    10.0   .     S
V3     Er15    10.0   .     S
V3     Er9    10.0   .     S
Er4     Er5    10.0   .     S
Er4     Er6    10.0   1_554     S
Er4     V10    10.0   1_655     S
Er5     Er6    10.0   .     S
Er5     V11    10.0   1_655     S
Er6     Er4    10.0   1_556     S
Er6     V12    10.0   1_655     S
Er7     Er8    10.0   .     S
Er7     Er9    10.0   1_554     S
Er7     V10    10.0   1_545     S
Er8     Er9    10.0   .     S
Er8     V11    10.0   1_545     S
Er9     Er7    10.0   1_556     S
Er9     V12    10.0   1_545     S
V10     Er7    10.0   1_565     S
V10     Er13    10.0   .     S
V10     Er4    10.0   1_455     S
V11     Er8    10.0   1_565     S
V11     Er14    10.0   .     S
V11     Er5    10.0   1_455     S
V12     Er9    10.0   1_565     S
V12     Er15    10.0   .     S
V12     Er6    10.0   1_455     S
Er13     Er14    10.0   .     S
Er13     Er15    10.0   1_554     S
Er14     Er15    10.0   .     S
Er15     Er13    10.0   1_556     S
