data_thp-x
_audit_creation_date              2019-12-31
_audit_creation_method            'Pymatgen'
_symmetry_space_group_name_H-M    'P1'
_symmetry_Int_Tables_number       1
loop_
_symmetry_equiv_pos_as_xyz
  x,y,z
_cell_length_a                    40.149
_cell_length_b                    40.149
_cell_length_c                    40.149
_cell_angle_alpha                 90.0
_cell_angle_beta                 90.0
_cell_angle_gamma                 90.0
loop_
_atom_site_label
_atom_site_type_symbol
_atom_site_fract_x
_atom_site_fract_y
_atom_site_fract_z
V1     V     0.0   0.125   0.1875
V2     V     0.0   0.125   0.6875
V3     V     0.0   0.625   0.1875
V4     V     0.0   0.625   0.6875
V5     V     0.5   0.125   0.1875
V6     V     0.5   0.125   0.6875
V7     V     0.5   0.625   0.1875
V8     V     0.5   0.625   0.6875
V9     V     0.125   0.1875   0.0
V10     V     0.125   0.1875   0.5
V11     V     0.125   0.6875   0.0
V12     V     0.125   0.6875   0.5
V13     V     0.625   0.1875   0.0
V14     V     0.625   0.1875   0.5
V15     V     0.625   0.6875   0.0
V16     V     0.625   0.6875   0.5
V17     V     0.375   0.0625   0.0
V18     V     0.375   0.0625   0.5
V19     V     0.375   0.5625   0.0
V20     V     0.375   0.5625   0.5
V21     V     0.875   0.0625   0.0
V22     V     0.875   0.0625   0.5
V23     V     0.875   0.5625   0.0
V24     V     0.875   0.5625   0.5
V25     V     0.1875   0.0   0.125
V26     V     0.1875   0.0   0.625
V27     V     0.1875   0.5   0.125
V28     V     0.1875   0.5   0.625
V29     V     0.6875   0.0   0.125
V30     V     0.6875   0.0   0.625
V31     V     0.6875   0.5   0.125
V32     V     0.6875   0.5   0.625
V33     V     0.25   0.375   0.4375
V34     V     0.25   0.375   0.9375
V35     V     0.25   0.875   0.4375
V36     V     0.25   0.875   0.9375
V37     V     0.75   0.375   0.4375
V38     V     0.75   0.375   0.9375
V39     V     0.75   0.875   0.4375
V40     V     0.75   0.875   0.9375
V41     V     0.3125   0.25   0.125
V42     V     0.3125   0.25   0.625
V43     V     0.3125   0.75   0.125
V44     V     0.3125   0.75   0.625
V45     V     0.8125   0.25   0.125
V46     V     0.8125   0.25   0.625
V47     V     0.8125   0.75   0.125
V48     V     0.8125   0.75   0.625
V49     V     0.0   0.375   0.0625
V50     V     0.0   0.375   0.5625
V51     V     0.0   0.875   0.0625
V52     V     0.0   0.875   0.5625
V53     V     0.5   0.375   0.0625
V54     V     0.5   0.375   0.5625
V55     V     0.5   0.875   0.0625
V56     V     0.5   0.875   0.5625
V57     V     0.125   0.3125   0.25
V58     V     0.125   0.3125   0.75
V59     V     0.125   0.8125   0.25
V60     V     0.125   0.8125   0.75
V61     V     0.625   0.3125   0.25
V62     V     0.625   0.3125   0.75
V63     V     0.625   0.8125   0.25
V64     V     0.625   0.8125   0.75
V65     V     0.4375   0.25   0.375
V66     V     0.4375   0.25   0.875
V67     V     0.4375   0.75   0.375
V68     V     0.4375   0.75   0.875
V69     V     0.9375   0.25   0.375
V70     V     0.9375   0.25   0.875
V71     V     0.9375   0.75   0.375
V72     V     0.9375   0.75   0.875
V73     V     0.375   0.4375   0.25
V74     V     0.375   0.4375   0.75
V75     V     0.375   0.9375   0.25
V76     V     0.375   0.9375   0.75
V77     V     0.875   0.4375   0.25
V78     V     0.875   0.4375   0.75
V79     V     0.875   0.9375   0.25
V80     V     0.875   0.9375   0.75
V81     V     0.0625   0.0   0.375
V82     V     0.0625   0.0   0.875
V83     V     0.0625   0.5   0.375
V84     V     0.0625   0.5   0.875
V85     V     0.5625   0.0   0.375
V86     V     0.5625   0.0   0.875
V87     V     0.5625   0.5   0.375
V88     V     0.5625   0.5   0.875
V89     V     0.25   0.125   0.3125
V90     V     0.25   0.125   0.8125
V91     V     0.25   0.625   0.3125
V92     V     0.25   0.625   0.8125
V93     V     0.75   0.125   0.3125
V94     V     0.75   0.125   0.8125
V95     V     0.75   0.625   0.3125
V96     V     0.75   0.625   0.8125
loop_
_geom_bond_atom_site_label_1
_geom_bond_atom_site_label_2
_geom_bond_distance
_geom_bond_site_symmetry_2
_ccdc_geom_bond_type
V1     V9    9.389   .     S
V1     V21    9.389   1_455     S
V1     V25    9.389   .     S
V1     V45    9.389   1_455     S
V1     V81    9.389   .     S
V1     V69    9.389   1_455     S
V1     V79    9.389   1_445     S
V1     V57    9.389   .     S
V1     V49    11.222   .     S
V1     V51    11.222   1_545     S
V1     V89    11.222   .     S
V1     V93    11.222   1_455     S
V2     V10    9.389   .     S
V2     V22    9.389   1_455     S
V2     V26    9.389   .     S
V2     V46    9.389   1_455     S
V2     V82    9.389   .     S
V2     V70    9.389   1_455     S
V2     V80    9.389   1_445     S
V2     V58    9.389   .     S
V2     V50    11.222   .     S
V2     V52    11.222   1_545     S
V2     V90    11.222   .     S
V2     V94    11.222   1_455     S
V3     V11    9.389   .     S
V3     V23    9.389   1_455     S
V3     V27    9.389   .     S
V3     V47    9.389   1_455     S
V3     V83    9.389   .     S
V3     V71    9.389   1_455     S
V3     V77    9.389   1_455     S
V3     V59    9.389   .     S
V3     V51    11.222   .     S
V3     V49    11.222   .     S
V3     V91    11.222   .     S
V3     V95    11.222   1_455     S
V4     V12    9.389   .     S
V4     V24    9.389   1_455     S
V4     V28    9.389   .     S
V4     V48    9.389   1_455     S
V4     V84    9.389   .     S
V4     V72    9.389   1_455     S
V4     V78    9.389   1_455     S
V4     V60    9.389   .     S
V4     V52    11.222   .     S
V4     V50    11.222   .     S
V4     V92    11.222   .     S
V4     V96    11.222   1_455     S
V5     V13    9.389   .     S
V5     V17    9.389   .     S
V5     V29    9.389   .     S
V5     V41    9.389   .     S
V5     V85    9.389   .     S
V5     V65    9.389   .     S
V5     V75    9.389   1_545     S
V5     V61    9.389   .     S
V5     V53    11.222   .     S
V5     V55    11.222   1_545     S
V5     V93    11.222   .     S
V5     V89    11.222   .     S
V6     V14    9.389   .     S
V6     V18    9.389   .     S
V6     V30    9.389   .     S
V6     V42    9.389   .     S
V6     V86    9.389   .     S
V6     V66    9.389   .     S
V6     V76    9.389   1_545     S
V6     V62    9.389   .     S
V6     V54    11.222   .     S
V6     V56    11.222   1_545     S
V6     V94    11.222   .     S
V6     V90    11.222   .     S
V7     V15    9.389   .     S
V7     V19    9.389   .     S
V7     V31    9.389   .     S
V7     V43    9.389   .     S
V7     V87    9.389   .     S
V7     V67    9.389   .     S
V7     V73    9.389   .     S
V7     V63    9.389   .     S
V7     V55    11.222   .     S
V7     V53    11.222   .     S
V7     V95    11.222   .     S
V7     V91    11.222   .     S
V8     V16    9.389   .     S
V8     V20    9.389   .     S
V8     V32    9.389   .     S
V8     V44    9.389   .     S
V8     V88    9.389   .     S
V8     V68    9.389   .     S
V8     V74    9.389   .     S
V8     V64    9.389   .     S
V8     V56    11.222   .     S
V8     V54    11.222   .     S
V8     V96    11.222   .     S
V8     V92    11.222   .     S
V9     V34    9.389   1_554     S
V9     V49    9.389   .     S
V9     V25    9.389   .     S
V9     V70    9.389   1_454     S
V9     V90    9.389   1_554     S
V9     V82    9.389   1_554     S
V9     V41    9.389   .     S
V9     V58    11.222   1_554     S
V9     V57    11.222   .     S
V9     V17    11.222   .     S
V9     V21    11.222   1_455     S
V10     V33    9.389   .     S
V10     V50    9.389   .     S
V10     V26    9.389   .     S
V10     V69    9.389   1_455     S
V10     V89    9.389   .     S
V10     V81    9.389   .     S
V10     V42    9.389   .     S
V10     V57    11.222   .     S
V10     V58    11.222   .     S
V10     V18    11.222   .     S
V10     V22    11.222   1_455     S
V11     V36    9.389   1_554     S
V11     V51    9.389   .     S
V11     V27    9.389   .     S
V11     V72    9.389   1_454     S
V11     V92    9.389   1_554     S
V11     V84    9.389   1_554     S
V11     V43    9.389   .     S
V11     V60    11.222   1_554     S
V11     V59    11.222   .     S
V11     V19    11.222   .     S
V11     V23    11.222   1_455     S
V12     V35    9.389   .     S
V12     V52    9.389   .     S
V12     V28    9.389   .     S
V12     V71    9.389   1_455     S
V12     V91    9.389   .     S
V12     V83    9.389   .     S
V12     V44    9.389   .     S
V12     V59    11.222   .     S
V12     V60    11.222   .     S
V12     V20    11.222   .     S
V12     V24    11.222   1_455     S
V13     V38    9.389   1_554     S
V13     V53    9.389   .     S
V13     V29    9.389   .     S
V13     V66    9.389   1_554     S
V13     V94    9.389   1_554     S
V13     V86    9.389   1_554     S
V13     V45    9.389   .     S
V13     V62    11.222   1_554     S
V13     V61    11.222   .     S
V13     V21    11.222   .     S
V13     V17    11.222   .     S
V14     V37    9.389   .     S
V14     V54    9.389   .     S
V14     V30    9.389   .     S
V14     V65    9.389   .     S
V14     V93    9.389   .     S
V14     V85    9.389   .     S
V14     V46    9.389   .     S
V14     V61    11.222   .     S
V14     V62    11.222   .     S
V14     V22    11.222   .     S
V14     V18    11.222   .     S
V15     V40    9.389   1_554     S
V15     V55    9.389   .     S
V15     V31    9.389   .     S
V15     V68    9.389   1_554     S
V15     V96    9.389   1_554     S
V15     V88    9.389   1_554     S
V15     V47    9.389   .     S
V15     V64    11.222   1_554     S
V15     V63    11.222   .     S
V15     V23    11.222   .     S
V15     V19    11.222   .     S
V16     V39    9.389   .     S
V16     V56    9.389   .     S
V16     V32    9.389   .     S
V16     V67    9.389   .     S
V16     V95    9.389   .     S
V16     V87    9.389   .     S
V16     V48    9.389   .     S
V16     V63    11.222   .     S
V16     V64    11.222   .     S
V16     V24    11.222   .     S
V16     V20    11.222   .     S
V17     V36    9.389   1_544     S
V17     V55    9.389   1_545     S
V17     V90    9.389   1_554     S
V17     V66    9.389   1_554     S
V17     V86    9.389   1_554     S
V17     V41    9.389   .     S
V17     V25    9.389   .     S
V17     V76    11.222   1_544     S
V17     V75    11.222   1_545     S
V18     V35    9.389   1_545     S
V18     V56    9.389   1_545     S
V18     V89    9.389   .     S
V18     V65    9.389   .     S
V18     V85    9.389   .     S
V18     V42    9.389   .     S
V18     V26    9.389   .     S
V18     V75    11.222   1_545     S
V18     V76    11.222   1_545     S
V19     V34    9.389   1_554     S
V19     V53    9.389   .     S
V19     V92    9.389   1_554     S
V19     V68    9.389   1_554     S
V19     V88    9.389   1_554     S
V19     V43    9.389   .     S
V19     V27    9.389   .     S
V19     V74    11.222   1_554     S
V19     V73    11.222   .     S
V20     V33    9.389   .     S
V20     V54    9.389   .     S
V20     V91    9.389   .     S
V20     V67    9.389   .     S
V20     V87    9.389   .     S
V20     V44    9.389   .     S
V20     V28    9.389   .     S
V20     V73    11.222   .     S
V20     V74    11.222   .     S
V21     V1    9.389   1_655     S
V21     V40    9.389   1_544     S
V21     V51    9.389   1_645     S
V21     V94    9.389   1_554     S
V21     V70    9.389   1_554     S
V21     V82    9.389   1_654     S
V21     V45    9.389   .     S
V21     V29    9.389   .     S
V21     V80    11.222   1_544     S
V21     V79    11.222   1_545     S
V21     V9    11.222   1_655     S
V22     V2    9.389   1_655     S
V22     V39    9.389   1_545     S
V22     V52    9.389   1_645     S
V22     V93    9.389   .     S
V22     V69    9.389   .     S
V22     V81    9.389   1_655     S
V22     V46    9.389   .     S
V22     V30    9.389   .     S
V22     V79    11.222   1_545     S
V22     V80    11.222   1_545     S
V22     V10    11.222   1_655     S
V23     V3    9.389   1_655     S
V23     V38    9.389   1_554     S
V23     V49    9.389   1_655     S
V23     V96    9.389   1_554     S
V23     V72    9.389   1_554     S
V23     V84    9.389   1_654     S
V23     V47    9.389   .     S
V23     V31    9.389   .     S
V23     V78    11.222   1_554     S
V23     V77    11.222   .     S
V23     V11    11.222   1_655     S
V24     V4    9.389   1_655     S
V24     V37    9.389   .     S
V24     V50    9.389   1_655     S
V24     V95    9.389   .     S
V24     V71    9.389   .     S
V24     V83    9.389   1_655     S
V24     V48    9.389   .     S
V24     V32    9.389   .     S
V24     V77    11.222   .     S
V24     V78    11.222   .     S
V24     V12    11.222   1_655     S
V25     V36    9.389   1_544     S
V25     V51    9.389   1_545     S
V25     V59    9.389   1_545     S
V25     V89    9.389   .     S
V25     V75    9.389   1_545     S
V25     V81    11.222   .     S
V25     V82    11.222   1_554     S
V25     V43    11.222   1_545     S
V25     V41    11.222   .     S
V26     V35    9.389   1_545     S
V26     V52    9.389   1_545     S
V26     V60    9.389   1_545     S
V26     V90    9.389   .     S
V26     V76    9.389   1_545     S
V26     V82    11.222   .     S
V26     V81    11.222   .     S
V26     V44    11.222   1_545     S
V26     V42    11.222   .     S
V27     V34    9.389   1_554     S
V27     V49    9.389   .     S
V27     V57    9.389   .     S
V27     V91    9.389   .     S
V27     V73    9.389   .     S
V27     V83    11.222   .     S
V27     V84    11.222   1_554     S
V27     V41    11.222   .     S
V27     V43    11.222   .     S
V28     V33    9.389   .     S
V28     V50    9.389   .     S
V28     V58    9.389   .     S
V28     V92    9.389   .     S
V28     V74    9.389   .     S
V28     V84    11.222   .     S
V28     V83    11.222   .     S
V28     V42    11.222   .     S
V28     V44    11.222   .     S
V29     V40    9.389   1_544     S
V29     V55    9.389   1_545     S
V29     V63    9.389   1_545     S
V29     V93    9.389   .     S
V29     V79    9.389   1_545     S
V29     V85    11.222   .     S
V29     V86    11.222   1_554     S
V29     V47    11.222   1_545     S
V29     V45    11.222   .     S
V30     V39    9.389   1_545     S
V30     V56    9.389   1_545     S
V30     V64    9.389   1_545     S
V30     V94    9.389   .     S
V30     V80    9.389   1_545     S
V30     V86    11.222   .     S
V30     V85    11.222   .     S
V30     V48    11.222   1_545     S
V30     V46    11.222   .     S
V31     V38    9.389   1_554     S
V31     V53    9.389   .     S
V31     V61    9.389   .     S
V31     V95    9.389   .     S
V31     V77    9.389   .     S
V31     V87    11.222   .     S
V31     V88    11.222   1_554     S
V31     V45    11.222   .     S
V31     V47    11.222   .     S
V32     V37    9.389   .     S
V32     V54    9.389   .     S
V32     V62    9.389   .     S
V32     V96    9.389   .     S
V32     V78    9.389   .     S
V32     V88    11.222   .     S
V32     V87    11.222   .     S
V32     V46    11.222   .     S
V32     V48    11.222   .     S
V33     V42    9.389   .     S
V33     V73    9.389   .     S
V33     V57    9.389   .     S
V33     V65    9.389   .     S
V33     V83    9.389   .     S
V33     V54    11.222   .     S
V33     V50    11.222   .     S
V33     V91    11.222   .     S
V33     V89    11.222   .     S
V34     V27    9.389   1_556     S
V34     V41    9.389   1_556     S
V34     V9    9.389   1_556     S
V34     V19    9.389   1_556     S
V34     V74    9.389   .     S
V34     V58    9.389   .     S
V34     V66    9.389   .     S
V34     V84    9.389   .     S
V34     V53    11.222   1_556     S
V34     V49    11.222   1_556     S
V34     V92    11.222   .     S
V34     V90    11.222   .     S
V35     V26    9.389   1_565     S
V35     V44    9.389   .     S
V35     V18    9.389   1_565     S
V35     V75    9.389   .     S
V35     V59    9.389   .     S
V35     V67    9.389   .     S
V35     V81    9.389   1_565     S
V35     V56    11.222   .     S
V35     V52    11.222   .     S
V35     V89    11.222   1_565     S
V35     V91    11.222   .     S
V36     V25    9.389   1_566     S
V36     V43    9.389   1_556     S
V36     V11    9.389   1_556     S
V36     V17    9.389   1_566     S
V36     V76    9.389   .     S
V36     V60    9.389   .     S
V36     V68    9.389   .     S
V36     V82    9.389   1_565     S
V36     V55    11.222   1_556     S
V36     V51    11.222   1_556     S
V36     V90    11.222   1_565     S
V36     V92    11.222   .     S
V37     V46    9.389   .     S
V37     V77    9.389   .     S
V37     V61    9.389   .     S
V37     V69    9.389   .     S
V37     V87    9.389   .     S
V37     V50    11.222   1_655     S
V37     V54    11.222   .     S
V37     V95    11.222   .     S
V37     V93    11.222   .     S
V38     V31    9.389   1_556     S
V38     V45    9.389   1_556     S
V38     V13    9.389   1_556     S
V38     V23    9.389   1_556     S
V38     V78    9.389   .     S
V38     V62    9.389   .     S
V38     V70    9.389   .     S
V38     V88    9.389   .     S
V38     V49    11.222   1_656     S
V38     V53    11.222   1_556     S
V38     V96    11.222   .     S
V38     V94    11.222   .     S
V39     V30    9.389   1_565     S
V39     V48    9.389   .     S
V39     V22    9.389   1_565     S
V39     V79    9.389   .     S
V39     V63    9.389   .     S
V39     V71    9.389   .     S
V39     V85    9.389   1_565     S
V39     V52    11.222   1_655     S
V39     V56    11.222   .     S
V39     V93    11.222   1_565     S
V39     V95    11.222   .     S
V40     V29    9.389   1_566     S
V40     V47    9.389   1_556     S
V40     V15    9.389   1_556     S
V40     V21    9.389   1_566     S
V40     V80    9.389   .     S
V40     V64    9.389   .     S
V40     V72    9.389   .     S
V40     V86    9.389   1_565     S
V40     V51    11.222   1_656     S
V40     V55    11.222   1_556     S
V40     V94    11.222   1_565     S
V40     V96    11.222   .     S
V41     V34    9.389   1_554     S
V41     V53    9.389   .     S
V41     V73    9.389   .     S
V41     V57    9.389   .     S
V41     V89    9.389   .     S
V41     V65    11.222   .     S
V41     V66    11.222   1_554     S
V42     V54    9.389   .     S
V42     V74    9.389   .     S
V42     V58    9.389   .     S
V42     V90    9.389   .     S
V42     V66    11.222   .     S
V42     V65    11.222   .     S
V43     V36    9.389   1_554     S
V43     V55    9.389   .     S
V43     V75    9.389   .     S
V43     V59    9.389   .     S
V43     V91    9.389   .     S
V43     V67    11.222   .     S
V43     V68    11.222   1_554     S
V43     V25    11.222   1_565     S
V44     V56    9.389   .     S
V44     V76    9.389   .     S
V44     V60    9.389   .     S
V44     V92    9.389   .     S
V44     V68    11.222   .     S
V44     V67    11.222   .     S
V44     V26    11.222   1_565     S
V45     V38    9.389   1_554     S
V45     V1    9.389   1_655     S
V45     V49    9.389   1_655     S
V45     V77    9.389   .     S
V45     V61    9.389   .     S
V45     V93    9.389   .     S
V45     V69    11.222   .     S
V45     V70    11.222   1_554     S
V46     V2    9.389   1_655     S
V46     V50    9.389   1_655     S
V46     V78    9.389   .     S
V46     V62    9.389   .     S
V46     V94    9.389   .     S
V46     V70    11.222   .     S
V46     V69    11.222   .     S
V47     V40    9.389   1_554     S
V47     V3    9.389   1_655     S
V47     V51    9.389   1_655     S
V47     V79    9.389   .     S
V47     V63    9.389   .     S
V47     V95    9.389   .     S
V47     V71    11.222   .     S
V47     V72    11.222   1_554     S
V47     V29    11.222   1_565     S
V48     V4    9.389   1_655     S
V48     V52    9.389   1_655     S
V48     V80    9.389   .     S
V48     V64    9.389   .     S
V48     V96    9.389   .     S
V48     V72    11.222   .     S
V48     V71    11.222   .     S
V48     V30    11.222   1_565     S
V49     V57    9.389   .     S
V49     V70    9.389   1_454     S
V49     V77    9.389   1_455     S
V49     V84    9.389   1_554     S
V49     V45    9.389   1_455     S
V49     V23    9.389   1_455     S
V49     V38    11.222   1_454     S
V49     V34    11.222   1_554     S
V50     V58    9.389   .     S
V50     V69    9.389   1_455     S
V50     V78    9.389   1_455     S
V50     V83    9.389   .     S
V50     V46    9.389   1_455     S
V50     V24    9.389   1_455     S
V50     V37    11.222   1_455     S
V51     V25    9.389   1_565     S
V51     V59    9.389   .     S
V51     V72    9.389   1_454     S
V51     V79    9.389   1_455     S
V51     V82    9.389   1_564     S
V51     V47    9.389   1_455     S
V51     V21    9.389   1_465     S
V51     V40    11.222   1_454     S
V51     V1    11.222   1_565     S
V51     V36    11.222   1_554     S
V52     V26    9.389   1_565     S
V52     V60    9.389   .     S
V52     V71    9.389   1_455     S
V52     V80    9.389   1_455     S
V52     V81    9.389   1_565     S
V52     V48    9.389   1_455     S
V52     V22    9.389   1_465     S
V52     V39    11.222   1_455     S
V52     V2    11.222   1_565     S
V53     V61    9.389   .     S
V53     V66    9.389   1_554     S
V53     V73    9.389   .     S
V53     V88    9.389   1_554     S
V53     V34    11.222   1_554     S
V53     V38    11.222   1_554     S
V54     V62    9.389   .     S
V54     V65    9.389   .     S
V54     V74    9.389   .     S
V54     V87    9.389   .     S
V55     V29    9.389   1_565     S
V55     V63    9.389   .     S
V55     V68    9.389   1_554     S
V55     V75    9.389   .     S
V55     V86    9.389   1_564     S
V55     V17    9.389   1_565     S
V55     V36    11.222   1_554     S
V55     V5    11.222   1_565     S
V55     V40    11.222   1_554     S
V56     V30    9.389   1_565     S
V56     V64    9.389   .     S
V56     V67    9.389   .     S
V56     V76    9.389   .     S
V56     V85    9.389   1_565     S
V56     V18    9.389   1_565     S
V56     V6    11.222   1_565     S
V57     V83    9.389   .     S
V57     V69    9.389   1_455     S
V57     V89    9.389   .     S
V57     V73    11.222   .     S
V57     V77    11.222   1_455     S
V58     V84    9.389   .     S
V58     V70    9.389   1_455     S
V58     V90    9.389   .     S
V58     V9    11.222   1_556     S
V58     V74    11.222   .     S
V58     V78    11.222   1_455     S
V59     V25    9.389   1_565     S
V59     V81    9.389   1_565     S
V59     V71    9.389   1_455     S
V59     V91    9.389   .     S
V59     V75    11.222   .     S
V59     V79    11.222   1_455     S
V60     V26    9.389   1_565     S
V60     V82    9.389   1_565     S
V60     V72    9.389   1_455     S
V60     V92    9.389   .     S
V60     V11    11.222   1_556     S
V60     V76    11.222   .     S
V60     V80    11.222   1_455     S
V61     V87    9.389   .     S
V61     V65    9.389   .     S
V61     V93    9.389   .     S
V61     V77    11.222   .     S
V61     V73    11.222   .     S
V62     V88    9.389   .     S
V62     V66    9.389   .     S
V62     V94    9.389   .     S
V62     V13    11.222   1_556     S
V62     V78    11.222   .     S
V62     V74    11.222   .     S
V63     V29    9.389   1_565     S
V63     V85    9.389   1_565     S
V63     V67    9.389   .     S
V63     V95    9.389   .     S
V63     V79    11.222   .     S
V63     V75    11.222   .     S
V64     V30    9.389   1_565     S
V64     V86    9.389   1_565     S
V64     V68    9.389   .     S
V64     V96    9.389   .     S
V64     V15    11.222   1_556     S
V64     V80    11.222   .     S
V64     V76    11.222   .     S
V65     V89    9.389   .     S
V65     V73    9.389   .     S
V65     V85    11.222   .     S
V65     V87    11.222   .     S
V66     V53    9.389   1_556     S
V66     V13    9.389   1_556     S
V66     V90    9.389   .     S
V66     V74    9.389   .     S
V66     V17    9.389   1_556     S
V66     V41    11.222   1_556     S
V66     V86    11.222   .     S
V66     V88    11.222   .     S
V67     V91    9.389   .     S
V67     V75    9.389   .     S
V67     V87    11.222   .     S
V67     V85    11.222   1_565     S
V68     V55    9.389   1_556     S
V68     V15    9.389   1_556     S
V68     V92    9.389   .     S
V68     V76    9.389   .     S
V68     V19    9.389   1_556     S
V68     V43    11.222   1_556     S
V68     V88    11.222   .     S
V68     V86    11.222   1_565     S
V69     V50    9.389   1_655     S
V69     V10    9.389   1_655     S
V69     V57    9.389   1_655     S
V69     V1    9.389   1_655     S
V69     V93    9.389   .     S
V69     V77    9.389   .     S
V69     V81    11.222   1_655     S
V69     V83    11.222   1_655     S
V70     V49    9.389   1_656     S
V70     V9    9.389   1_656     S
V70     V58    9.389   1_655     S
V70     V2    9.389   1_655     S
V70     V94    9.389   .     S
V70     V78    9.389   .     S
V70     V21    9.389   1_556     S
V70     V45    11.222   1_556     S
V70     V82    11.222   1_655     S
V70     V84    11.222   1_655     S
V71     V52    9.389   1_655     S
V71     V12    9.389   1_655     S
V71     V59    9.389   1_655     S
V71     V3    9.389   1_655     S
V71     V95    9.389   .     S
V71     V79    9.389   .     S
V71     V83    11.222   1_655     S
V71     V81    11.222   1_665     S
V72     V51    9.389   1_656     S
V72     V11    9.389   1_656     S
V72     V60    9.389   1_655     S
V72     V4    9.389   1_655     S
V72     V96    9.389   .     S
V72     V80    9.389   .     S
V72     V23    9.389   1_556     S
V72     V47    11.222   1_556     S
V72     V84    11.222   1_655     S
V72     V82    11.222   1_665     S
V73     V87    9.389   .     S
V73     V91    9.389   .     S
V74     V88    9.389   .     S
V74     V92    9.389   .     S
V74     V19    11.222   1_556     S
V75     V85    9.389   1_565     S
V75     V5    9.389   1_565     S
V75     V89    9.389   1_565     S
V75     V25    9.389   1_565     S
V75     V18    11.222   1_565     S
V75     V17    11.222   1_565     S
V76     V86    9.389   1_565     S
V76     V6    9.389   1_565     S
V76     V90    9.389   1_565     S
V76     V26    9.389   1_565     S
V76     V17    11.222   1_566     S
V76     V18    11.222   1_565     S
V77     V49    9.389   1_655     S
V77     V83    9.389   1_655     S
V77     V3    9.389   1_655     S
V77     V95    9.389   .     S
V77     V57    11.222   1_655     S
V78     V50    9.389   1_655     S
V78     V84    9.389   1_655     S
V78     V4    9.389   1_655     S
V78     V96    9.389   .     S
V78     V23    11.222   1_556     S
V78     V58    11.222   1_655     S
V79     V51    9.389   1_655     S
V79     V81    9.389   1_665     S
V79     V1    9.389   1_665     S
V79     V93    9.389   1_565     S
V79     V29    9.389   1_565     S
V79     V22    11.222   1_565     S
V79     V21    11.222   1_565     S
V79     V59    11.222   1_655     S
V80     V52    9.389   1_655     S
V80     V82    9.389   1_665     S
V80     V2    9.389   1_665     S
V80     V94    9.389   1_565     S
V80     V30    9.389   1_565     S
V80     V21    11.222   1_566     S
V80     V22    11.222   1_565     S
V80     V60    11.222   1_655     S
V81     V52    9.389   1_545     S
V81     V59    9.389   1_545     S
V81     V79    9.389   1_445     S
V81     V35    9.389   1_545     S
V81     V89    9.389   .     S
V81     V22    9.389   1_455     S
V81     V69    11.222   1_455     S
V81     V71    11.222   1_445     S
V82     V51    9.389   1_546     S
V82     V60    9.389   1_545     S
V82     V80    9.389   1_445     S
V82     V36    9.389   1_545     S
V82     V90    9.389   .     S
V82     V9    9.389   1_556     S
V82     V21    9.389   1_456     S
V82     V25    11.222   1_556     S
V82     V70    11.222   1_455     S
V82     V72    11.222   1_445     S
V83     V77    9.389   1_455     S
V83     V91    9.389   .     S
V83     V24    9.389   1_455     S
V83     V71    11.222   1_455     S
V83     V69    11.222   1_455     S
V84     V49    9.389   1_556     S
V84     V78    9.389   1_455     S
V84     V92    9.389   .     S
V84     V11    9.389   1_556     S
V84     V23    9.389   1_456     S
V84     V27    11.222   1_556     S
V84     V72    11.222   1_455     S
V84     V70    11.222   1_455     S
V85     V56    9.389   1_545     S
V85     V63    9.389   1_545     S
V85     V75    9.389   1_545     S
V85     V39    9.389   1_545     S
V85     V93    9.389   .     S
V85     V67    11.222   1_545     S
V86     V55    9.389   1_546     S
V86     V64    9.389   1_545     S
V86     V76    9.389   1_545     S
V86     V40    9.389   1_545     S
V86     V94    9.389   .     S
V86     V13    9.389   1_556     S
V86     V17    9.389   1_556     S
V86     V29    11.222   1_556     S
V86     V68    11.222   1_545     S
V87     V95    9.389   .     S
V88     V53    9.389   1_556     S
V88     V96    9.389   .     S
V88     V15    9.389   1_556     S
V88     V19    9.389   1_556     S
V88     V31    11.222   1_556     S
V89     V75    9.389   1_545     S
V89     V35    11.222   1_545     S
V90     V17    9.389   1_556     S
V90     V9    9.389   1_556     S
V90     V76    9.389   1_545     S
V90     V36    11.222   1_545     S
V92     V19    9.389   1_556     S
V92     V11    9.389   1_556     S
V93     V79    9.389   1_545     S
V93     V39    11.222   1_545     S
V93     V1    11.222   1_655     S
V94     V21    9.389   1_556     S
V94     V13    9.389   1_556     S
V94     V80    9.389   1_545     S
V94     V40    11.222   1_545     S
V94     V2    11.222   1_655     S
V95     V3    11.222   1_655     S
V96     V23    9.389   1_556     S
V96     V15    9.389   1_556     S
V96     V4    11.222   1_655     S
