data_ths-e
_audit_creation_date              2019-12-31
_audit_creation_method            'Pymatgen'
_symmetry_space_group_name_H-M    'P1'
_symmetry_Int_Tables_number       1
loop_
_symmetry_equiv_pos_as_xyz
  x,y,z
_cell_length_a                    40.0
_cell_length_b                    40.0
_cell_length_c                    69.282
_cell_angle_alpha                 90.0
_cell_angle_beta                 90.0
_cell_angle_gamma                 90.0
loop_
_atom_site_label
_atom_site_type_symbol
_atom_site_fract_x
_atom_site_fract_y
_atom_site_fract_z
V1     V     0.25   0.375   0.875
V2     V     0.25   0.875   0.875
V3     V     0.75   0.375   0.875
V4     V     0.75   0.875   0.875
V5     V     0.0   0.375   0.625
V6     V     0.0   0.875   0.625
V7     V     0.5   0.375   0.625
V8     V     0.5   0.875   0.625
Er9     Er     0.25   0.0   0.0
Er10     Er     0.25   0.5   0.0
Er11     Er     0.75   0.0   0.0
Er12     Er     0.75   0.5   0.0
Er13     Er     0.25   0.25   0.0
Er14     Er     0.25   0.75   0.0
Er15     Er     0.75   0.25   0.0
Er16     Er     0.75   0.75   0.0
Er17     Er     0.125   0.125   0.25
Er18     Er     0.125   0.625   0.25
Er19     Er     0.625   0.125   0.25
Er20     Er     0.625   0.625   0.25
V21     V     0.25   0.125   0.125
V22     V     0.25   0.625   0.125
V23     V     0.75   0.125   0.125
V24     V     0.75   0.625   0.125
Er25     Er     0.375   0.125   0.25
Er26     Er     0.375   0.625   0.25
Er27     Er     0.875   0.125   0.25
Er28     Er     0.875   0.625   0.25
V29     V     0.0   0.125   0.375
V30     V     0.0   0.625   0.375
V31     V     0.5   0.125   0.375
V32     V     0.5   0.625   0.375
Er33     Er     0.0   0.0   0.5
Er34     Er     0.0   0.5   0.5
Er35     Er     0.5   0.0   0.5
Er36     Er     0.5   0.5   0.5
Er37     Er     0.0   0.25   0.5
Er38     Er     0.0   0.75   0.5
Er39     Er     0.5   0.25   0.5
Er40     Er     0.5   0.75   0.5
Er41     Er     0.125   0.375   0.75
Er42     Er     0.125   0.875   0.75
Er43     Er     0.625   0.375   0.75
Er44     Er     0.625   0.875   0.75
Er45     Er     0.375   0.375   0.75
Er46     Er     0.375   0.875   0.75
Er47     Er     0.875   0.375   0.75
Er48     Er     0.875   0.875   0.75
loop_
_geom_bond_atom_site_label_1
_geom_bond_atom_site_label_2
_geom_bond_distance
_geom_bond_site_symmetry_2
_ccdc_geom_bond_type
V1     Er41    10.0   .     S
V1     Er45    10.0   .     S
V1     Er10    10.0   1_556     S
V1     Er13    10.0   1_556     S
V2     Er42    10.0   .     S
V2     Er46    10.0   .     S
V2     Er9    10.0   1_566     S
V2     Er14    10.0   1_556     S
V3     Er43    10.0   .     S
V3     Er47    10.0   .     S
V3     Er12    10.0   1_556     S
V3     Er15    10.0   1_556     S
V4     Er44    10.0   .     S
V4     Er48    10.0   .     S
V4     Er11    10.0   1_566     S
V4     Er16    10.0   1_556     S
V5     Er41    10.0   .     S
V5     Er47    10.0   1_455     S
V5     Er34    10.0   .     S
V5     Er37    10.0   .     S
V6     Er42    10.0   .     S
V6     Er48    10.0   1_455     S
V6     Er33    10.0   1_565     S
V6     Er38    10.0   .     S
V7     Er43    10.0   .     S
V7     Er45    10.0   .     S
V7     Er36    10.0   .     S
V7     Er39    10.0   .     S
V8     Er44    10.0   .     S
V8     Er46    10.0   .     S
V8     Er35    10.0   1_565     S
V8     Er40    10.0   .     S
Er9     V2    10.0   1_544     S
Er9     Er14    10.0   1_545     S
Er9     V21    10.0   .     S
Er9     Er13    10.0   .     S
Er10     V1    10.0   1_554     S
Er10     Er13    10.0   .     S
Er10     V22    10.0   .     S
Er10     Er14    10.0   .     S
Er11     V4    10.0   1_544     S
Er11     Er16    10.0   1_545     S
Er11     V23    10.0   .     S
Er11     Er15    10.0   .     S
Er12     V3    10.0   1_554     S
Er12     Er15    10.0   .     S
Er12     V24    10.0   .     S
Er12     Er16    10.0   .     S
Er13     V1    10.0   1_554     S
Er13     V21    10.0   .     S
Er14     Er9    10.0   1_565     S
Er14     V2    10.0   1_554     S
Er14     V22    10.0   .     S
Er15     V3    10.0   1_554     S
Er15     V23    10.0   .     S
Er16     Er11    10.0   1_565     S
Er16     V4    10.0   1_554     S
Er16     V24    10.0   .     S
Er17     V21    10.0   .     S
Er17     Er25    10.0   .     S
Er17     V29    10.0   .     S
Er17     Er27    10.0   1_455     S
Er18     V22    10.0   .     S
Er18     Er26    10.0   .     S
Er18     V30    10.0   .     S
Er18     Er28    10.0   1_455     S
Er19     V23    10.0   .     S
Er19     Er27    10.0   .     S
Er19     V31    10.0   .     S
Er19     Er25    10.0   .     S
Er20     V24    10.0   .     S
Er20     Er28    10.0   .     S
Er20     V32    10.0   .     S
Er20     Er26    10.0   .     S
V21     Er25    10.0   .     S
V22     Er26    10.0   .     S
V23     Er27    10.0   .     S
V24     Er28    10.0   .     S
Er25     V31    10.0   .     S
Er26     V32    10.0   .     S
Er27     V29    10.0   1_655     S
Er27     Er17    10.0   1_655     S
Er28     V30    10.0   1_655     S
Er28     Er18    10.0   1_655     S
V29     Er33    10.0   .     S
V29     Er27    10.0   1_455     S
V29     Er37    10.0   .     S
V30     Er34    10.0   .     S
V30     Er28    10.0   1_455     S
V30     Er38    10.0   .     S
V31     Er35    10.0   .     S
V31     Er39    10.0   .     S
V32     Er36    10.0   .     S
V32     Er40    10.0   .     S
Er33     V6    10.0   1_545     S
Er33     Er37    10.0   .     S
Er33     Er38    10.0   1_545     S
Er34     Er38    10.0   .     S
Er34     Er37    10.0   .     S
Er35     V8    10.0   1_545     S
Er35     Er39    10.0   .     S
Er35     Er40    10.0   1_545     S
Er36     Er40    10.0   .     S
Er36     Er39    10.0   .     S
Er38     Er33    10.0   1_565     S
Er40     Er35    10.0   1_565     S
Er41     Er47    10.0   1_455     S
Er41     Er45    10.0   .     S
Er42     Er48    10.0   1_455     S
Er42     Er46    10.0   .     S
Er43     Er45    10.0   .     S
Er43     Er47    10.0   .     S
Er44     Er46    10.0   .     S
Er44     Er48    10.0   .     S
Er47     V5    10.0   1_655     S
Er47     Er41    10.0   1_655     S
Er48     V6    10.0   1_655     S
Er48     Er42    10.0   1_655     S
