data_tnn
_audit_creation_date              2019-12-31
_audit_creation_method            'Pymatgen'
_symmetry_space_group_name_H-M    'P1'
_symmetry_Int_Tables_number       1
loop_
_symmetry_equiv_pos_as_xyz
  x,y,z
_cell_length_a                    27.3205
_cell_length_b                    27.3205
_cell_length_c                    30.0
_cell_angle_alpha                 90.0
_cell_angle_beta                 90.0
_cell_angle_gamma                 120.0
loop_
_atom_site_label
_atom_site_type_symbol
_atom_site_fract_x
_atom_site_fract_y
_atom_site_fract_z
V1     V     0.0   0.0   0.0
V2     V     0.0   0.0   0.3333
V3     V     0.0   0.0   0.6667
Er4     Er     0.7887   0.2113   0.0
Er5     Er     0.7887   0.2113   0.3333
Er6     Er     0.7887   0.2113   0.6667
Er7     Er     0.7887   0.5774   0.0
Er8     Er     0.7887   0.5774   0.3333
Er9     Er     0.7887   0.5774   0.6667
Er10     Er     0.4226   0.2113   0.0
Er11     Er     0.4226   0.2113   0.3333
Er12     Er     0.4226   0.2113   0.6667
loop_
_geom_bond_atom_site_label_1
_geom_bond_atom_site_label_2
_geom_bond_distance
_geom_bond_site_symmetry_2
_ccdc_geom_bond_type
V1     Er4    10.0   1_455     S
V1     Er10    10.0   .     S
V1     Er7    10.0   1_445     S
V1     V2    10.0   .     S
V1     V3    10.0   1_554     S
V2     Er5    10.0   1_455     S
V2     Er11    10.0   .     S
V2     Er8    10.0   1_445     S
V2     V3    10.0   .     S
V3     Er6    10.0   1_455     S
V3     Er12    10.0   .     S
V3     Er9    10.0   1_445     S
V3     V1    10.0   1_556     S
Er4     V1    10.0   1_655     S
Er4     Er5    10.0   .     S
Er4     Er6    10.0   1_554     S
Er4     Er7    10.0   .     S
Er4     Er10    10.0   .     S
Er5     V2    10.0   1_655     S
Er5     Er6    10.0   .     S
Er5     Er8    10.0   .     S
Er5     Er11    10.0   .     S
Er6     V3    10.0   1_655     S
Er6     Er4    10.0   1_556     S
Er6     Er9    10.0   .     S
Er6     Er12    10.0   .     S
Er7     V1    10.0   1_665     S
Er7     Er8    10.0   .     S
Er7     Er9    10.0   1_554     S
Er7     Er10    10.0   .     S
Er8     V2    10.0   1_665     S
Er8     Er9    10.0   .     S
Er8     Er11    10.0   .     S
Er9     V3    10.0   1_665     S
Er9     Er7    10.0   1_556     S
Er9     Er12    10.0   .     S
Er10     Er11    10.0   .     S
Er10     Er12    10.0   1_554     S
Er11     Er12    10.0   .     S
Er12     Er10    10.0   1_556     S
