data_ton
_audit_creation_date              2019-12-31
_audit_creation_method            'Pymatgen'
_symmetry_space_group_name_H-M    'P1'
_symmetry_Int_Tables_number       1
loop_
_symmetry_equiv_pos_as_xyz
  x,y,z
_cell_length_a                    43.923
_cell_length_b                    43.923
_cell_length_c                    43.923
_cell_angle_alpha                 90.0
_cell_angle_beta                 90.0
_cell_angle_gamma                 90.0
loop_
_atom_site_label
_atom_site_type_symbol
_atom_site_fract_x
_atom_site_fract_y
_atom_site_fract_z
V1     V     0.375   0.125   0.375
V2     V     0.375   0.125   0.875
V3     V     0.375   0.625   0.375
V4     V     0.375   0.625   0.875
V5     V     0.875   0.125   0.375
V6     V     0.875   0.125   0.875
V7     V     0.875   0.625   0.375
V8     V     0.875   0.625   0.875
V9     V     0.375   0.125   0.125
V10     V     0.375   0.125   0.625
V11     V     0.375   0.625   0.125
V12     V     0.375   0.625   0.625
V13     V     0.875   0.125   0.125
V14     V     0.875   0.125   0.625
V15     V     0.875   0.625   0.125
V16     V     0.875   0.625   0.625
V17     V     0.375   0.375   0.125
V18     V     0.375   0.375   0.625
V19     V     0.375   0.875   0.125
V20     V     0.375   0.875   0.625
V21     V     0.875   0.375   0.125
V22     V     0.875   0.375   0.625
V23     V     0.875   0.875   0.125
V24     V     0.875   0.875   0.625
V25     V     0.125   0.375   0.125
V26     V     0.125   0.375   0.625
V27     V     0.125   0.875   0.125
V28     V     0.125   0.875   0.625
V29     V     0.625   0.375   0.125
V30     V     0.625   0.375   0.625
V31     V     0.625   0.875   0.125
V32     V     0.625   0.875   0.625
V33     V     0.125   0.375   0.375
V34     V     0.125   0.375   0.875
V35     V     0.125   0.875   0.375
V36     V     0.125   0.875   0.875
V37     V     0.625   0.375   0.375
V38     V     0.625   0.375   0.875
V39     V     0.625   0.875   0.375
V40     V     0.625   0.875   0.875
V41     V     0.125   0.125   0.375
V42     V     0.125   0.125   0.875
V43     V     0.125   0.625   0.375
V44     V     0.125   0.625   0.875
V45     V     0.625   0.125   0.375
V46     V     0.625   0.125   0.875
V47     V     0.625   0.625   0.375
V48     V     0.625   0.625   0.875
Er49     Er     0.0   0.0   0.25
Er50     Er     0.0   0.0   0.75
Er51     Er     0.0   0.5   0.25
Er52     Er     0.0   0.5   0.75
Er53     Er     0.5   0.0   0.25
Er54     Er     0.5   0.0   0.75
Er55     Er     0.5   0.5   0.25
Er56     Er     0.5   0.5   0.75
Er57     Er     0.0   0.25   0.0
Er58     Er     0.0   0.25   0.5
Er59     Er     0.0   0.75   0.0
Er60     Er     0.0   0.75   0.5
Er61     Er     0.5   0.25   0.0
Er62     Er     0.5   0.25   0.5
Er63     Er     0.5   0.75   0.0
Er64     Er     0.5   0.75   0.5
Er65     Er     0.25   0.25   0.25
Er66     Er     0.25   0.25   0.75
Er67     Er     0.25   0.75   0.25
Er68     Er     0.25   0.75   0.75
Er69     Er     0.75   0.25   0.25
Er70     Er     0.75   0.25   0.75
Er71     Er     0.75   0.75   0.25
Er72     Er     0.75   0.75   0.75
Er73     Er     0.25   0.0   0.0
Er74     Er     0.25   0.0   0.5
Er75     Er     0.25   0.5   0.0
Er76     Er     0.25   0.5   0.5
Er77     Er     0.75   0.0   0.0
Er78     Er     0.75   0.0   0.5
Er79     Er     0.75   0.5   0.0
Er80     Er     0.75   0.5   0.5
loop_
_geom_bond_atom_site_label_1
_geom_bond_atom_site_label_2
_geom_bond_distance
_geom_bond_site_symmetry_2
_ccdc_geom_bond_type
V1     V41    10.981   .     S
V1     V45    10.981   .     S
V1     V9    10.981   .     S
V1     V10    10.981   .     S
V1     Er65    9.51   .     S
V1     Er74    9.51   .     S
V1     Er53    9.51   .     S
V1     Er62    9.51   .     S
V2     V42    10.981   .     S
V2     V46    10.981   .     S
V2     V10    10.981   .     S
V2     V9    10.981   1_556     S
V2     Er66    9.51   .     S
V2     Er73    9.51   1_556     S
V2     Er54    9.51   .     S
V2     Er61    9.51   1_556     S
V3     V43    10.981   .     S
V3     V47    10.981   .     S
V3     V11    10.981   .     S
V3     V12    10.981   .     S
V3     Er67    9.51   .     S
V3     Er76    9.51   .     S
V3     Er55    9.51   .     S
V3     Er64    9.51   .     S
V4     V44    10.981   .     S
V4     V48    10.981   .     S
V4     V12    10.981   .     S
V4     V11    10.981   1_556     S
V4     Er68    9.51   .     S
V4     Er75    9.51   1_556     S
V4     Er56    9.51   .     S
V4     Er63    9.51   1_556     S
V5     V45    10.981   .     S
V5     V41    10.981   1_655     S
V5     V13    10.981   .     S
V5     V14    10.981   .     S
V5     Er69    9.51   .     S
V5     Er78    9.51   .     S
V5     Er49    9.51   1_655     S
V5     Er58    9.51   1_655     S
V6     V46    10.981   .     S
V6     V42    10.981   1_655     S
V6     V14    10.981   .     S
V6     V13    10.981   1_556     S
V6     Er70    9.51   .     S
V6     Er77    9.51   1_556     S
V6     Er50    9.51   1_655     S
V6     Er57    9.51   1_656     S
V7     V47    10.981   .     S
V7     V43    10.981   1_655     S
V7     V15    10.981   .     S
V7     V16    10.981   .     S
V7     Er71    9.51   .     S
V7     Er80    9.51   .     S
V7     Er51    9.51   1_655     S
V7     Er60    9.51   1_655     S
V8     V48    10.981   .     S
V8     V44    10.981   1_655     S
V8     V16    10.981   .     S
V8     V15    10.981   1_556     S
V8     Er72    9.51   .     S
V8     Er79    9.51   1_556     S
V8     Er52    9.51   1_655     S
V8     Er59    9.51   1_656     S
V9     V17    10.981   .     S
V9     V19    10.981   1_545     S
V9     V2    10.981   1_554     S
V9     Er65    9.51   .     S
V9     Er73    9.51   .     S
V9     Er61    9.51   .     S
V9     Er53    9.51   .     S
V10     V18    10.981   .     S
V10     V20    10.981   1_545     S
V10     Er66    9.51   .     S
V10     Er74    9.51   .     S
V10     Er62    9.51   .     S
V10     Er54    9.51   .     S
V11     V19    10.981   .     S
V11     V17    10.981   .     S
V11     V4    10.981   1_554     S
V11     Er67    9.51   .     S
V11     Er75    9.51   .     S
V11     Er63    9.51   .     S
V11     Er55    9.51   .     S
V12     V20    10.981   .     S
V12     V18    10.981   .     S
V12     Er68    9.51   .     S
V12     Er76    9.51   .     S
V12     Er64    9.51   .     S
V12     Er56    9.51   .     S
V13     V21    10.981   .     S
V13     V23    10.981   1_545     S
V13     V6    10.981   1_554     S
V13     Er69    9.51   .     S
V13     Er77    9.51   .     S
V13     Er57    9.51   1_655     S
V13     Er49    9.51   1_655     S
V14     V22    10.981   .     S
V14     V24    10.981   1_545     S
V14     Er70    9.51   .     S
V14     Er78    9.51   .     S
V14     Er58    9.51   1_655     S
V14     Er50    9.51   1_655     S
V15     V23    10.981   .     S
V15     V21    10.981   .     S
V15     V8    10.981   1_554     S
V15     Er71    9.51   .     S
V15     Er79    9.51   .     S
V15     Er59    9.51   1_655     S
V15     Er51    9.51   1_655     S
V16     V24    10.981   .     S
V16     V22    10.981   .     S
V16     Er72    9.51   .     S
V16     Er80    9.51   .     S
V16     Er60    9.51   1_655     S
V16     Er52    9.51   1_655     S
V17     V25    10.981   .     S
V17     V29    10.981   .     S
V17     Er65    9.51   .     S
V17     Er75    9.51   .     S
V17     Er61    9.51   .     S
V17     Er55    9.51   .     S
V18     V26    10.981   .     S
V18     V30    10.981   .     S
V18     Er66    9.51   .     S
V18     Er76    9.51   .     S
V18     Er62    9.51   .     S
V18     Er56    9.51   .     S
V19     V27    10.981   .     S
V19     V31    10.981   .     S
V19     V9    10.981   1_565     S
V19     Er67    9.51   .     S
V19     Er73    9.51   1_565     S
V19     Er63    9.51   .     S
V19     Er53    9.51   1_565     S
V20     V28    10.981   .     S
V20     V32    10.981   .     S
V20     V10    10.981   1_565     S
V20     Er68    9.51   .     S
V20     Er74    9.51   1_565     S
V20     Er64    9.51   .     S
V20     Er54    9.51   1_565     S
V21     V29    10.981   .     S
V21     V25    10.981   1_655     S
V21     Er69    9.51   .     S
V21     Er79    9.51   .     S
V21     Er57    9.51   1_655     S
V21     Er51    9.51   1_655     S
V22     V30    10.981   .     S
V22     V26    10.981   1_655     S
V22     Er70    9.51   .     S
V22     Er80    9.51   .     S
V22     Er58    9.51   1_655     S
V22     Er52    9.51   1_655     S
V23     V31    10.981   .     S
V23     V27    10.981   1_655     S
V23     V13    10.981   1_565     S
V23     Er71    9.51   .     S
V23     Er77    9.51   1_565     S
V23     Er59    9.51   1_655     S
V23     Er49    9.51   1_665     S
V24     V32    10.981   .     S
V24     V28    10.981   1_655     S
V24     V14    10.981   1_565     S
V24     Er72    9.51   .     S
V24     Er78    9.51   1_565     S
V24     Er60    9.51   1_655     S
V24     Er50    9.51   1_665     S
V25     V33    10.981   .     S
V25     V34    10.981   1_554     S
V25     V21    10.981   1_455     S
V25     Er65    9.51   .     S
V25     Er57    9.51   .     S
V25     Er51    9.51   .     S
V25     Er75    9.51   .     S
V26     V34    10.981   .     S
V26     V33    10.981   .     S
V26     V22    10.981   1_455     S
V26     Er66    9.51   .     S
V26     Er58    9.51   .     S
V26     Er52    9.51   .     S
V26     Er76    9.51   .     S
V27     V35    10.981   .     S
V27     V36    10.981   1_554     S
V27     V23    10.981   1_455     S
V27     Er67    9.51   .     S
V27     Er59    9.51   .     S
V27     Er49    9.51   1_565     S
V27     Er73    9.51   1_565     S
V28     V36    10.981   .     S
V28     V35    10.981   .     S
V28     V24    10.981   1_455     S
V28     Er68    9.51   .     S
V28     Er60    9.51   .     S
V28     Er50    9.51   1_565     S
V28     Er74    9.51   1_565     S
V29     V37    10.981   .     S
V29     V38    10.981   1_554     S
V29     Er69    9.51   .     S
V29     Er61    9.51   .     S
V29     Er55    9.51   .     S
V29     Er79    9.51   .     S
V30     V38    10.981   .     S
V30     V37    10.981   .     S
V30     Er70    9.51   .     S
V30     Er62    9.51   .     S
V30     Er56    9.51   .     S
V30     Er80    9.51   .     S
V31     V39    10.981   .     S
V31     V40    10.981   1_554     S
V31     Er71    9.51   .     S
V31     Er63    9.51   .     S
V31     Er53    9.51   1_565     S
V31     Er77    9.51   1_565     S
V32     V40    10.981   .     S
V32     V39    10.981   .     S
V32     Er72    9.51   .     S
V32     Er64    9.51   .     S
V32     Er54    9.51   1_565     S
V32     Er78    9.51   1_565     S
V33     V41    10.981   .     S
V33     V43    10.981   .     S
V33     Er65    9.51   .     S
V33     Er58    9.51   .     S
V33     Er51    9.51   .     S
V33     Er76    9.51   .     S
V34     V42    10.981   .     S
V34     V25    10.981   1_556     S
V34     V44    10.981   .     S
V34     Er66    9.51   .     S
V34     Er57    9.51   1_556     S
V34     Er52    9.51   .     S
V34     Er75    9.51   1_556     S
V35     V43    10.981   .     S
V35     V41    10.981   1_565     S
V35     Er67    9.51   .     S
V35     Er60    9.51   .     S
V35     Er49    9.51   1_565     S
V35     Er74    9.51   1_565     S
V36     V44    10.981   .     S
V36     V27    10.981   1_556     S
V36     V42    10.981   1_565     S
V36     Er68    9.51   .     S
V36     Er59    9.51   1_556     S
V36     Er50    9.51   1_565     S
V36     Er73    9.51   1_566     S
V37     V45    10.981   .     S
V37     V47    10.981   .     S
V37     Er69    9.51   .     S
V37     Er62    9.51   .     S
V37     Er55    9.51   .     S
V37     Er80    9.51   .     S
V38     V46    10.981   .     S
V38     V29    10.981   1_556     S
V38     V48    10.981   .     S
V38     Er70    9.51   .     S
V38     Er61    9.51   1_556     S
V38     Er56    9.51   .     S
V38     Er79    9.51   1_556     S
V39     V47    10.981   .     S
V39     V45    10.981   1_565     S
V39     Er71    9.51   .     S
V39     Er64    9.51   .     S
V39     Er53    9.51   1_565     S
V39     Er78    9.51   1_565     S
V40     V48    10.981   .     S
V40     V31    10.981   1_556     S
V40     V46    10.981   1_565     S
V40     Er72    9.51   .     S
V40     Er63    9.51   1_556     S
V40     Er54    9.51   1_565     S
V40     Er77    9.51   1_566     S
V41     V35    10.981   1_545     S
V41     V5    10.981   1_455     S
V41     Er65    9.51   .     S
V41     Er49    9.51   .     S
V41     Er74    9.51   .     S
V41     Er58    9.51   .     S
V42     V36    10.981   1_545     S
V42     V6    10.981   1_455     S
V42     Er66    9.51   .     S
V42     Er50    9.51   .     S
V42     Er73    9.51   1_556     S
V42     Er57    9.51   1_556     S
V43     V7    10.981   1_455     S
V43     Er67    9.51   .     S
V43     Er51    9.51   .     S
V43     Er76    9.51   .     S
V43     Er60    9.51   .     S
V44     V8    10.981   1_455     S
V44     Er68    9.51   .     S
V44     Er52    9.51   .     S
V44     Er75    9.51   1_556     S
V44     Er59    9.51   1_556     S
V45     V39    10.981   1_545     S
V45     Er69    9.51   .     S
V45     Er53    9.51   .     S
V45     Er78    9.51   .     S
V45     Er62    9.51   .     S
V46     V40    10.981   1_545     S
V46     Er70    9.51   .     S
V46     Er54    9.51   .     S
V46     Er77    9.51   1_556     S
V46     Er61    9.51   1_556     S
V47     Er71    9.51   .     S
V47     Er55    9.51   .     S
V47     Er80    9.51   .     S
V47     Er64    9.51   .     S
V48     Er72    9.51   .     S
V48     Er56    9.51   .     S
V48     Er79    9.51   1_556     S
V48     Er63    9.51   1_556     S
Er49     V35    9.51   1_545     S
Er49     V5    9.51   1_455     S
Er49     V27    9.51   1_545     S
Er49     V23    9.51   1_445     S
Er49     V13    9.51   1_455     S
Er50     V36    9.51   1_545     S
Er50     V6    9.51   1_455     S
Er50     V28    9.51   1_545     S
Er50     V24    9.51   1_445     S
Er50     V14    9.51   1_455     S
Er51     V7    9.51   1_455     S
Er51     V21    9.51   1_455     S
Er51     V15    9.51   1_455     S
Er52     V8    9.51   1_455     S
Er52     V22    9.51   1_455     S
Er52     V16    9.51   1_455     S
Er53     V39    9.51   1_545     S
Er53     V31    9.51   1_545     S
Er53     V19    9.51   1_545     S
Er54     V40    9.51   1_545     S
Er54     V32    9.51   1_545     S
Er54     V20    9.51   1_545     S
Er57     V34    9.51   1_554     S
Er57     V21    9.51   1_455     S
Er57     V42    9.51   1_554     S
Er57     V13    9.51   1_455     S
Er57     V6    9.51   1_454     S
Er58     V22    9.51   1_455     S
Er58     V14    9.51   1_455     S
Er58     V5    9.51   1_455     S
Er59     V36    9.51   1_554     S
Er59     V23    9.51   1_455     S
Er59     V44    9.51   1_554     S
Er59     V15    9.51   1_455     S
Er59     V8    9.51   1_454     S
Er60     V24    9.51   1_455     S
Er60     V16    9.51   1_455     S
Er60     V7    9.51   1_455     S
Er61     V38    9.51   1_554     S
Er61     V46    9.51   1_554     S
Er61     V2    9.51   1_554     S
Er63     V40    9.51   1_554     S
Er63     V48    9.51   1_554     S
Er63     V4    9.51   1_554     S
Er73     V19    9.51   1_545     S
Er73     V2    9.51   1_554     S
Er73     V36    9.51   1_544     S
Er73     V27    9.51   1_545     S
Er73     V42    9.51   1_554     S
Er74     V20    9.51   1_545     S
Er74     V35    9.51   1_545     S
Er74     V28    9.51   1_545     S
Er75     V4    9.51   1_554     S
Er75     V34    9.51   1_554     S
Er75     V44    9.51   1_554     S
Er77     V23    9.51   1_545     S
Er77     V6    9.51   1_554     S
Er77     V40    9.51   1_544     S
Er77     V31    9.51   1_545     S
Er77     V46    9.51   1_554     S
Er78     V24    9.51   1_545     S
Er78     V39    9.51   1_545     S
Er78     V32    9.51   1_545     S
Er79     V8    9.51   1_554     S
Er79     V38    9.51   1_554     S
Er79     V48    9.51   1_554     S
