data_tpr
_audit_creation_date              2019-12-31
_audit_creation_method            'Pymatgen'
_symmetry_space_group_name_H-M    'P1'
_symmetry_Int_Tables_number       1
loop_
_symmetry_equiv_pos_as_xyz
  x,y,z
_cell_length_a                    37.3204
_cell_length_b                    37.3204
_cell_length_c                    30.0
_cell_angle_alpha                 90.0
_cell_angle_beta                 90.0
_cell_angle_gamma                 120.0
loop_
_atom_site_label
_atom_site_type_symbol
_atom_site_fract_x
_atom_site_fract_y
_atom_site_fract_z
V1     V     0.9107   0.8214   0.0
V2     V     0.9107   0.8214   0.3333
V3     V     0.9107   0.8214   0.6667
Er4     Er     0.756   0.512   0.0
Er5     Er     0.756   0.512   0.3333
Er6     Er     0.756   0.512   0.6667
Er7     Er     0.756   0.244   0.0
Er8     Er     0.756   0.244   0.3333
Er9     Er     0.756   0.244   0.6667
V10     V     0.9107   0.0893   0.0
V11     V     0.9107   0.0893   0.3333
V12     V     0.9107   0.0893   0.6667
V13     V     0.1786   0.0893   0.0
V14     V     0.1786   0.0893   0.3333
V15     V     0.1786   0.0893   0.6667
Er16     Er     0.488   0.244   0.0
Er17     Er     0.488   0.244   0.3333
Er18     Er     0.488   0.244   0.6667
loop_
_geom_bond_atom_site_label_1
_geom_bond_atom_site_label_2
_geom_bond_distance
_geom_bond_site_symmetry_2
_ccdc_geom_bond_type
V1     V13    10.0   1_665     S
V1     Er4    10.0   .     S
V1     V10    10.0   1_565     S
V2     V14    10.0   1_665     S
V2     Er5    10.0   .     S
V2     V11    10.0   1_565     S
V3     V15    10.0   1_665     S
V3     Er6    10.0   .     S
V3     V12    10.0   1_565     S
Er4     Er5    10.0   .     S
Er4     Er6    10.0   1_554     S
Er4     Er16    10.0   .     S
Er4     Er7    10.0   .     S
Er5     Er6    10.0   .     S
Er5     Er17    10.0   .     S
Er5     Er8    10.0   .     S
Er6     Er4    10.0   1_556     S
Er6     Er18    10.0   .     S
Er6     Er9    10.0   .     S
Er7     Er16    10.0   .     S
Er7     Er8    10.0   .     S
Er7     Er9    10.0   1_554     S
Er7     V10    10.0   .     S
Er8     Er17    10.0   .     S
Er8     Er9    10.0   .     S
Er8     V11    10.0   .     S
Er9     Er18    10.0   .     S
Er9     Er7    10.0   1_556     S
Er9     V12    10.0   .     S
V10     V13    10.0   1_655     S
V10     V1    10.0   1_545     S
V11     V14    10.0   1_655     S
V11     V2    10.0   1_545     S
V12     V15    10.0   1_655     S
V12     V3    10.0   1_545     S
V13     V1    10.0   1_445     S
V13     Er16    10.0   .     S
V13     V10    10.0   1_455     S
V14     V2    10.0   1_445     S
V14     Er17    10.0   .     S
V14     V11    10.0   1_455     S
V15     V3    10.0   1_445     S
V15     Er18    10.0   .     S
V15     V12    10.0   1_455     S
Er16     Er17    10.0   .     S
Er16     Er18    10.0   1_554     S
Er17     Er18    10.0   .     S
Er18     Er16    10.0   1_556     S
