data_tps
_audit_creation_date              2019-12-31
_audit_creation_method            'Pymatgen'
_symmetry_space_group_name_H-M    'P1'
_symmetry_Int_Tables_number       1
loop_
_symmetry_equiv_pos_as_xyz
  x,y,z
_cell_length_a                    56.5757
_cell_length_b                    56.5757
_cell_length_c                    23.0882
_cell_angle_alpha                 90.0
_cell_angle_beta                 90.0
_cell_angle_gamma                 120.0
loop_
_atom_site_label
_atom_site_type_symbol
_atom_site_fract_x
_atom_site_fract_y
_atom_site_fract_z
Er1     Er     0.5   0.5   0.25
Er2     Er     0.5   0.5   0.75
Er3     Er     1.0   0.5   0.25
Er4     Er     1.0   0.5   0.75
Ti5     Ti     0.3333   0.6667   0.25
Ti6     Ti     0.3333   0.6667   0.75
V7     V     0.1667   0.5833   0.0
V8     V     0.1667   0.5833   0.5
V9     V     0.4167   0.5833   0.0
V10     V     0.4167   0.5833   0.5
V11     V     0.4167   0.8333   0.0
V12     V     0.4167   0.8333   0.5
Er13     Er     0.5   0.0   0.25
Er14     Er     0.5   0.0   0.75
Ti15     Ti     0.6667   0.3333   0.25
Ti16     Ti     0.6667   0.3333   0.75
V17     V     0.5833   0.4167   0.0
V18     V     0.5833   0.4167   0.5
V19     V     0.5833   0.1667   0.0
V20     V     0.5833   0.1667   0.5
V21     V     0.8333   0.4167   0.0
V22     V     0.8333   0.4167   0.5
loop_
_geom_bond_atom_site_label_1
_geom_bond_atom_site_label_2
_geom_bond_distance
_geom_bond_site_symmetry_2
_ccdc_geom_bond_type
Er1     V17    10.001   .     S
Er1     V18    10.001   .     S
Er1     V9    10.001   .     S
Er1     V10    10.001   .     S
Er2     V18    10.001   .     S
Er2     V17    10.001   1_556     S
Er2     V10    10.001   .     S
Er2     V9    10.001   1_556     S
Er3     V21    10.001   .     S
Er3     V22    10.001   .     S
Er3     V7    10.001   1_655     S
Er3     V8    10.001   1_655     S
Er4     V22    10.001   .     S
Er4     V21    10.001   1_556     S
Er4     V8    10.001   1_655     S
Er4     V7    10.001   1_656     S
Ti5     V8    10.0   .     S
Ti5     V7    10.0   .     S
Ti5     V10    10.0   .     S
Ti5     V9    10.0   .     S
Ti5     V12    9.999   .     S
Ti5     V11    9.999   .     S
Ti6     V7    10.0   1_556     S
Ti6     V8    10.0   .     S
Ti6     V9    10.0   1_556     S
Ti6     V10    10.0   .     S
Ti6     V11    9.999   1_556     S
Ti6     V12    9.999   .     S
V7     Ti6    10.0   1_554     S
V7     Er3    10.001   1_455     S
V7     Er4    10.001   1_454     S
V8     Er4    10.001   1_455     S
V8     Er3    10.001   1_455     S
V9     Er2    10.001   1_554     S
V9     Ti6    10.0   1_554     S
V11     Ti6    9.999   1_554     S
V11     Er13    10.001   1_565     S
V11     Er14    10.001   1_564     S
V12     Er14    10.001   1_565     S
V12     Er13    10.001   1_565     S
Er13     V11    10.001   1_545     S
Er13     V12    10.001   1_545     S
Er13     V19    10.001   .     S
Er13     V20    10.001   .     S
Er14     V12    10.001   1_545     S
Er14     V11    10.001   1_546     S
Er14     V20    10.001   .     S
Er14     V19    10.001   1_556     S
Ti15     V17    9.999   .     S
Ti15     V19    10.0   .     S
Ti15     V22    10.0   .     S
Ti15     V20    10.0   .     S
Ti15     V18    9.999   .     S
Ti15     V21    10.0   .     S
Ti16     V18    9.999   .     S
Ti16     V20    10.0   .     S
Ti16     V21    10.0   1_556     S
Ti16     V19    10.0   1_556     S
Ti16     V17    9.999   1_556     S
Ti16     V22    10.0   .     S
V17     Er2    10.001   1_554     S
V17     Ti16    9.999   1_554     S
V19     Ti16    10.0   1_554     S
V19     Er14    10.001   1_554     S
V21     Er4    10.001   1_554     S
V21     Ti16    10.0   1_554     S
