data_tpt
_audit_creation_date              2019-12-31
_audit_creation_method            'Pymatgen'
_symmetry_space_group_name_H-M    'P1'
_symmetry_Int_Tables_number       1
loop_
_symmetry_equiv_pos_as_xyz
  x,y,z
_cell_length_a                    21.3816
_cell_length_b                    21.3816
_cell_length_c                    23.0926
_cell_angle_alpha                 90.0
_cell_angle_beta                 90.0
_cell_angle_gamma                 120.0
loop_
_atom_site_label
_atom_site_type_symbol
_atom_site_fract_x
_atom_site_fract_y
_atom_site_fract_z
Er1     Er     0.0   0.25   0.75
Er2     Er     0.0   0.75   0.75
Er3     Er     0.5   0.25   0.75
Er4     Er     0.5   0.75   0.75
Er5     Er     0.0   0.25   0.25
Er6     Er     0.0   0.75   0.25
Er7     Er     0.5   0.25   0.25
Er8     Er     0.5   0.75   0.25
V9     V     0.1667   0.3333   0.5
V10     V     0.1667   0.8333   0.5
V11     V     0.6667   0.3333   0.5
V12     V     0.6667   0.8333   0.5
Er13     Er     0.25   0.0   0.75
Er14     Er     0.25   0.5   0.75
Er15     Er     0.75   0.0   0.75
Er16     Er     0.75   0.5   0.75
V17     V     0.3333   0.1667   0.0
V18     V     0.3333   0.6667   0.0
V19     V     0.8333   0.1667   0.0
V20     V     0.8333   0.6667   0.0
V21     V     0.1667   0.3333   0.0
V22     V     0.1667   0.8333   0.0
V23     V     0.6667   0.3333   0.0
V24     V     0.6667   0.8333   0.0
Er25     Er     0.25   0.0   0.25
Er26     Er     0.25   0.5   0.25
Er27     Er     0.75   0.0   0.25
Er28     Er     0.75   0.5   0.25
Er29     Er     0.25   0.25   0.75
Er30     Er     0.25   0.75   0.75
Er31     Er     0.75   0.25   0.75
Er32     Er     0.75   0.75   0.75
V33     V     0.3333   0.1667   0.5
V34     V     0.3333   0.6667   0.5
V35     V     0.8333   0.1667   0.5
V36     V     0.8333   0.6667   0.5
Er37     Er     0.25   0.25   0.25
Er38     Er     0.25   0.75   0.25
Er39     Er     0.75   0.25   0.25
Er40     Er     0.75   0.75   0.25
loop_
_geom_bond_atom_site_label_1
_geom_bond_atom_site_label_2
_geom_bond_distance
_geom_bond_site_symmetry_2
_ccdc_geom_bond_type
Er1     V24    10.0   1_446     S
Er1     V18    10.0   1_556     S
Er1     V11    10.0   1_455     S
Er1     V33    10.0   .     S
Er2     V23    10.0   1_456     S
Er2     V17    10.0   1_566     S
Er2     V12    10.0   1_455     S
Er2     V34    10.0   .     S
Er3     V22    10.0   1_546     S
Er3     V20    10.0   1_556     S
Er3     V9    10.0   .     S
Er3     V35    10.0   .     S
Er4     V21    10.0   1_556     S
Er4     V19    10.0   1_566     S
Er4     V10    10.0   .     S
Er4     V36    10.0   .     S
Er5     V18    10.0   .     S
Er5     V24    10.0   1_445     S
Er5     V33    10.0   .     S
Er5     V11    10.0   1_455     S
Er6     V17    10.0   1_565     S
Er6     V23    10.0   1_455     S
Er6     V34    10.0   .     S
Er6     V12    10.0   1_455     S
Er7     V20    10.0   .     S
Er7     V22    10.0   1_545     S
Er7     V35    10.0   .     S
Er7     V9    10.0   .     S
Er8     V19    10.0   1_565     S
Er8     V21    10.0   .     S
Er8     V36    10.0   .     S
Er8     V10    10.0   .     S
V9     Er15    10.0   1_455     S
V9     Er27    10.0   1_455     S
V9     Er30    10.0   .     S
V9     Er38    10.0   .     S
V10     Er16    10.0   1_455     S
V10     Er28    10.0   1_455     S
V10     Er29    10.0   1_565     S
V10     Er37    10.0   1_565     S
V11     Er13    10.0   .     S
V11     Er25    10.0   .     S
V11     Er32    10.0   .     S
V11     Er40    10.0   .     S
V11     Er1    10.0   1_655     S
V11     Er5    10.0   1_655     S
V12     Er14    10.0   .     S
V12     Er26    10.0   .     S
V12     Er31    10.0   1_565     S
V12     Er39    10.0   1_565     S
V12     Er2    10.0   1_655     S
V12     Er6    10.0   1_655     S
Er13     V36    10.0   1_445     S
Er13     V18    10.0   1_546     S
Er13     V21    10.0   1_556     S
Er14     V35    10.0   1_455     S
Er14     V17    10.0   1_556     S
Er14     V22    10.0   1_556     S
Er15     V9    10.0   1_655     S
Er15     V34    10.0   1_545     S
Er15     V20    10.0   1_546     S
Er15     V23    10.0   1_556     S
Er16     V10    10.0   1_655     S
Er16     V33    10.0   .     S
Er16     V19    10.0   1_556     S
Er16     V24    10.0   1_556     S
V17     Er31    10.0   1_554     S
V17     Er39    10.0   .     S
V17     Er2    10.0   1_544     S
V17     Er6    10.0   1_545     S
V17     Er14    10.0   1_554     S
V17     Er26    10.0   .     S
V18     Er32    10.0   1_554     S
V18     Er40    10.0   .     S
V18     Er1    10.0   1_554     S
V18     Er13    10.0   1_564     S
V18     Er25    10.0   1_565     S
V19     Er29    10.0   1_654     S
V19     Er37    10.0   1_655     S
V19     Er4    10.0   1_544     S
V19     Er8    10.0   1_545     S
V19     Er16    10.0   1_554     S
V19     Er28    10.0   .     S
V20     Er30    10.0   1_654     S
V20     Er38    10.0   1_655     S
V20     Er3    10.0   1_554     S
V20     Er15    10.0   1_564     S
V20     Er27    10.0   1_565     S
V21     Er31    10.0   1_454     S
V21     Er39    10.0   1_455     S
V21     Er4    10.0   1_554     S
V21     Er13    10.0   1_554     S
V21     Er25    10.0   .     S
V22     Er32    10.0   1_454     S
V22     Er40    10.0   1_455     S
V22     Er3    10.0   1_564     S
V22     Er7    10.0   1_565     S
V22     Er14    10.0   1_554     S
V22     Er26    10.0   .     S
V23     Er29    10.0   1_554     S
V23     Er37    10.0   .     S
V23     Er2    10.0   1_654     S
V23     Er6    10.0   1_655     S
V23     Er15    10.0   1_554     S
V23     Er27    10.0   .     S
V24     Er30    10.0   1_554     S
V24     Er38    10.0   .     S
V24     Er1    10.0   1_664     S
V24     Er5    10.0   1_665     S
V24     Er16    10.0   1_554     S
V24     Er28    10.0   .     S
Er25     V36    10.0   1_445     S
Er25     V18    10.0   1_545     S
Er26     V35    10.0   1_455     S
Er27     V34    10.0   1_545     S
Er27     V9    10.0   1_655     S
Er27     V20    10.0   1_545     S
Er28     V33    10.0   .     S
Er28     V10    10.0   1_655     S
Er29     V23    10.0   1_556     S
Er29     V19    10.0   1_456     S
Er29     V34    10.0   .     S
Er29     V10    10.0   1_545     S
Er30     V24    10.0   1_556     S
Er30     V20    10.0   1_456     S
Er30     V33    10.0   1_565     S
Er31     V21    10.0   1_656     S
Er31     V17    10.0   1_556     S
Er31     V36    10.0   .     S
Er31     V12    10.0   1_545     S
Er32     V22    10.0   1_656     S
Er32     V18    10.0   1_556     S
Er32     V35    10.0   1_565     S
V33     Er30    10.0   1_545     S
V33     Er38    10.0   1_545     S
V34     Er15    10.0   1_565     S
V34     Er27    10.0   1_565     S
V34     Er37    10.0   .     S
V35     Er14    10.0   1_655     S
V35     Er26    10.0   1_655     S
V35     Er32    10.0   1_545     S
V35     Er40    10.0   1_545     S
V36     Er13    10.0   1_665     S
V36     Er25    10.0   1_665     S
V36     Er39    10.0   .     S
Er37     V19    10.0   1_455     S
Er37     V10    10.0   1_545     S
Er38     V20    10.0   1_455     S
Er38     V33    10.0   1_565     S
Er39     V21    10.0   1_655     S
Er39     V12    10.0   1_545     S
Er40     V22    10.0   1_655     S
Er40     V35    10.0   1_565     S
