data_tpz
_audit_creation_date              2019-12-31
_audit_creation_method            'Pymatgen'
_symmetry_space_group_name_H-M    'P1'
_symmetry_Int_Tables_number       1
loop_
_symmetry_equiv_pos_as_xyz
  x,y,z
_cell_length_a                    71.4298
_cell_length_b                    71.4298
_cell_length_c                    25.191
_cell_angle_alpha                 90.0
_cell_angle_beta                 90.0
_cell_angle_gamma                 120.0
loop_
_atom_site_label
_atom_site_type_symbol
_atom_site_fract_x
_atom_site_fract_y
_atom_site_fract_z
V1     V     0.4577   0.9153   0.0
V2     V     0.4577   0.9153   0.5
V3     V     0.4577   0.5423   0.0
V4     V     0.4577   0.5423   0.5
Er5     Er     0.3955   0.791   0.25
Er6     Er     0.3955   0.791   0.75
Ti7     Ti     0.3333   0.6667   0.0
Ti8     Ti     0.3333   0.6667   0.5
Er9     Er     0.3955   0.6045   0.25
Er10     Er     0.3955   0.6045   0.75
Er11     Er     0.209   0.6045   0.25
Er12     Er     0.209   0.6045   0.75
V13     V     0.0847   0.5423   0.0
V14     V     0.0847   0.5423   0.5
V15     V     0.9153   0.4577   0.0
V16     V     0.9153   0.4577   0.5
V17     V     0.5423   0.4577   0.0
V18     V     0.5423   0.4577   0.5
Er19     Er     0.791   0.3955   0.25
Er20     Er     0.791   0.3955   0.75
Er21     Er     0.6045   0.3955   0.25
Er22     Er     0.6045   0.3955   0.75
Ti23     Ti     0.6667   0.3333   0.0
Ti24     Ti     0.6667   0.3333   0.5
Er25     Er     0.6045   0.209   0.25
Er26     Er     0.6045   0.209   0.75
V27     V     0.5423   0.0847   0.0
V28     V     0.5423   0.0847   0.5
loop_
_geom_bond_atom_site_label_1
_geom_bond_atom_site_label_2
_geom_bond_distance
_geom_bond_site_symmetry_2
_ccdc_geom_bond_type
V1     V27    10.475   1_565     S
V1     Er5    9.941   .     S
V1     Er6    9.941   1_554     S
V2     V28    10.475   1_565     S
V2     Er6    9.941   .     S
V2     Er5    9.941   .     S
V3     V17    10.475   .     S
V3     Er9    9.941   .     S
V3     Er10    9.941   1_554     S
V4     V18    10.475   .     S
V4     Er10    9.941   .     S
V4     Er9    9.941   .     S
Er5     Ti8    9.94   .     S
Er5     Ti7    9.94   .     S
Er6     V1    9.941   1_556     S
Er6     Ti7    9.94   1_556     S
Er6     Ti8    9.94   .     S
Ti7     Er6    9.94   1_554     S
Ti7     Er11    9.94   .     S
Ti7     Er9    9.94   .     S
Ti7     Er10    9.94   1_554     S
Ti7     Er12    9.94   1_554     S
Ti8     Er12    9.94   .     S
Ti8     Er10    9.94   .     S
Ti8     Er9    9.94   .     S
Ti8     Er11    9.94   .     S
Er10     Ti7    9.94   1_556     S
Er10     V3    9.941   1_556     S
Er11     V13    9.941   .     S
Er11     V14    9.941   .     S
Er12     Ti7    9.94   1_556     S
Er12     V14    9.941   .     S
Er12     V13    9.941   1_556     S
V13     V15    10.475   1_455     S
V13     Er12    9.941   1_554     S
V14     V16    10.475   1_455     S
V15     V13    10.475   1_655     S
V15     Er20    9.941   1_554     S
V15     Er19    9.941   .     S
V16     V14    10.475   1_655     S
V16     Er19    9.941   .     S
V16     Er20    9.941   .     S
V17     Er22    9.941   1_554     S
V17     Er21    9.941   .     S
V18     Er21    9.941   .     S
V18     Er22    9.941   .     S
Er19     Ti23    9.94   .     S
Er19     Ti24    9.94   .     S
Er20     V15    9.941   1_556     S
Er20     Ti24    9.94   .     S
Er20     Ti23    9.94   1_556     S
Er21     Ti24    9.94   .     S
Er21     Ti23    9.94   .     S
Er22     Ti23    9.94   1_556     S
Er22     Ti24    9.94   .     S
Er22     V17    9.941   1_556     S
Ti23     Er20    9.94   1_554     S
Ti23     Er22    9.94   1_554     S
Ti23     Er25    9.94   .     S
Ti23     Er26    9.94   1_554     S
Ti24     Er26    9.94   .     S
Ti24     Er25    9.94   .     S
Er25     V27    9.941   .     S
Er25     V28    9.941   .     S
Er26     Ti23    9.94   1_556     S
Er26     V28    9.941   .     S
Er26     V27    9.941   1_556     S
V27     V1    10.475   1_545     S
V27     Er26    9.941   1_554     S
V28     V2    10.475   1_545     S
