data_tsn
_audit_creation_date              2019-12-31
_audit_creation_method            'Pymatgen'
_symmetry_space_group_name_H-M    'P1'
_symmetry_Int_Tables_number       1
loop_
_symmetry_equiv_pos_as_xyz
  x,y,z
_cell_length_a                    33.9632
_cell_length_b                    33.9632
_cell_length_c                    24.168
_cell_angle_alpha                 90.0
_cell_angle_beta                 90.0
_cell_angle_gamma                 120.0
loop_
_atom_site_label
_atom_site_type_symbol
_atom_site_fract_x
_atom_site_fract_y
_atom_site_fract_z
Ti1     Ti     0.1667   0.3333   0.1
Ti2     Ti     0.1667   0.3333   0.3
Ti3     Ti     0.1667   0.3333   0.5
Ti4     Ti     0.1667   0.3333   0.7
Ti5     Ti     0.1667   0.3333   0.9
Ti6     Ti     0.1667   0.8333   0.1
Ti7     Ti     0.1667   0.8333   0.3
Ti8     Ti     0.1667   0.8333   0.5
Ti9     Ti     0.1667   0.8333   0.7
Ti10     Ti     0.1667   0.8333   0.9
Ti11     Ti     0.6667   0.3333   0.1
Ti12     Ti     0.6667   0.3333   0.3
Ti13     Ti     0.6667   0.3333   0.5
Ti14     Ti     0.6667   0.3333   0.7
Ti15     Ti     0.6667   0.3333   0.9
Ti16     Ti     0.6667   0.8333   0.1
Ti17     Ti     0.6667   0.8333   0.3
Ti18     Ti     0.6667   0.8333   0.5
Ti19     Ti     0.6667   0.8333   0.7
Ti20     Ti     0.6667   0.8333   0.9
V21     V     0.0   0.0   0.0
V22     V     0.0   0.0   0.2
V23     V     0.0   0.0   0.4
V24     V     0.0   0.0   0.6
V25     V     0.0   0.0   0.8
V26     V     0.0   0.5   0.0
V27     V     0.0   0.5   0.2
V28     V     0.0   0.5   0.4
V29     V     0.0   0.5   0.6
V30     V     0.0   0.5   0.8
V31     V     0.5   0.0   0.0
V32     V     0.5   0.0   0.2
V33     V     0.5   0.0   0.4
V34     V     0.5   0.0   0.6
V35     V     0.5   0.0   0.8
V36     V     0.5   0.5   0.0
V37     V     0.5   0.5   0.2
V38     V     0.5   0.5   0.4
V39     V     0.5   0.5   0.6
V40     V     0.5   0.5   0.8
Er41     Er     0.3333   0.1667   0.0
Er42     Er     0.3333   0.1667   0.2
Er43     Er     0.3333   0.1667   0.4
Er44     Er     0.3333   0.1667   0.6
Er45     Er     0.3333   0.1667   0.8
Er46     Er     0.3333   0.6667   0.0
Er47     Er     0.3333   0.6667   0.2
Er48     Er     0.3333   0.6667   0.4
Er49     Er     0.3333   0.6667   0.6
Er50     Er     0.3333   0.6667   0.8
Er51     Er     0.8333   0.1667   0.0
Er52     Er     0.8333   0.1667   0.2
Er53     Er     0.8333   0.1667   0.4
Er54     Er     0.8333   0.1667   0.6
Er55     Er     0.8333   0.1667   0.8
Er56     Er     0.8333   0.6667   0.0
Er57     Er     0.8333   0.6667   0.2
Er58     Er     0.8333   0.6667   0.4
Er59     Er     0.8333   0.6667   0.6
Er60     Er     0.8333   0.6667   0.8
loop_
_geom_bond_atom_site_label_1
_geom_bond_atom_site_label_2
_geom_bond_distance
_geom_bond_site_symmetry_2
_ccdc_geom_bond_type
Ti1     V37    10.098   .     S
Ti1     V36    10.098   .     S
Ti1     V26    10.098   .     S
Ti1     V27    10.098   .     S
Ti1     V21    10.098   .     S
Ti1     V22    10.098   .     S
Ti2     V38    10.098   .     S
Ti2     V37    10.098   .     S
Ti2     V27    10.098   .     S
Ti2     V28    10.098   .     S
Ti2     V22    10.098   .     S
Ti2     V23    10.098   .     S
Ti3     V39    10.098   .     S
Ti3     V38    10.098   .     S
Ti3     V28    10.098   .     S
Ti3     V29    10.098   .     S
Ti3     V23    10.098   .     S
Ti3     V24    10.098   .     S
Ti4     V40    10.098   .     S
Ti4     V39    10.098   .     S
Ti4     V29    10.098   .     S
Ti4     V30    10.098   .     S
Ti4     V24    10.098   .     S
Ti4     V25    10.098   .     S
Ti5     V36    10.098   1_556     S
Ti5     V40    10.098   .     S
Ti5     V30    10.098   .     S
Ti5     V26    10.098   1_556     S
Ti5     V25    10.098   .     S
Ti5     V21    10.098   1_556     S
Ti6     V32    10.098   1_565     S
Ti6     V31    10.098   1_565     S
Ti6     V21    10.098   1_565     S
Ti6     V22    10.098   1_565     S
Ti6     V26    10.098   .     S
Ti6     V27    10.098   .     S
Ti7     V33    10.098   1_565     S
Ti7     V32    10.098   1_565     S
Ti7     V22    10.098   1_565     S
Ti7     V23    10.098   1_565     S
Ti7     V27    10.098   .     S
Ti7     V28    10.098   .     S
Ti8     V34    10.098   1_565     S
Ti8     V33    10.098   1_565     S
Ti8     V23    10.098   1_565     S
Ti8     V24    10.098   1_565     S
Ti8     V28    10.098   .     S
Ti8     V29    10.098   .     S
Ti9     V35    10.098   1_565     S
Ti9     V34    10.098   1_565     S
Ti9     V24    10.098   1_565     S
Ti9     V25    10.098   1_565     S
Ti9     V29    10.098   .     S
Ti9     V30    10.098   .     S
Ti10     V31    10.098   1_566     S
Ti10     V35    10.098   1_565     S
Ti10     V25    10.098   1_565     S
Ti10     V21    10.098   1_566     S
Ti10     V30    10.098   .     S
Ti10     V26    10.098   1_556     S
Ti11     V27    10.098   1_655     S
Ti11     V26    10.098   1_655     S
Ti11     V36    10.098   .     S
Ti11     V37    10.098   .     S
Ti11     V31    10.098   .     S
Ti11     V32    10.098   .     S
Ti12     V28    10.098   1_655     S
Ti12     V27    10.098   1_655     S
Ti12     V37    10.098   .     S
Ti12     V38    10.098   .     S
Ti12     V32    10.098   .     S
Ti12     V33    10.098   .     S
Ti13     V29    10.098   1_655     S
Ti13     V28    10.098   1_655     S
Ti13     V38    10.098   .     S
Ti13     V39    10.098   .     S
Ti13     V33    10.098   .     S
Ti13     V34    10.098   .     S
Ti14     V30    10.098   1_655     S
Ti14     V29    10.098   1_655     S
Ti14     V39    10.098   .     S
Ti14     V40    10.098   .     S
Ti14     V34    10.098   .     S
Ti14     V35    10.098   .     S
Ti15     V26    10.098   1_656     S
Ti15     V30    10.098   1_655     S
Ti15     V40    10.098   .     S
Ti15     V36    10.098   1_556     S
Ti15     V35    10.098   .     S
Ti15     V31    10.098   1_556     S
Ti16     V22    10.098   1_665     S
Ti16     V21    10.098   1_665     S
Ti16     V31    10.098   1_565     S
Ti16     V32    10.098   1_565     S
Ti16     V36    10.098   .     S
Ti16     V37    10.098   .     S
Ti17     V23    10.098   1_665     S
Ti17     V22    10.098   1_665     S
Ti17     V32    10.098   1_565     S
Ti17     V33    10.098   1_565     S
Ti17     V37    10.098   .     S
Ti17     V38    10.098   .     S
Ti18     V24    10.098   1_665     S
Ti18     V23    10.098   1_665     S
Ti18     V33    10.098   1_565     S
Ti18     V34    10.098   1_565     S
Ti18     V38    10.098   .     S
Ti18     V39    10.098   .     S
Ti19     V25    10.098   1_665     S
Ti19     V24    10.098   1_665     S
Ti19     V34    10.098   1_565     S
Ti19     V35    10.098   1_565     S
Ti19     V39    10.098   .     S
Ti19     V40    10.098   .     S
Ti20     V21    10.098   1_666     S
Ti20     V25    10.098   1_665     S
Ti20     V35    10.098   1_565     S
Ti20     V31    10.098   1_566     S
Ti20     V40    10.098   .     S
Ti20     V36    10.098   1_556     S
V21     Ti20    10.098   1_444     S
V21     Ti16    10.098   1_445     S
V21     Ti6    10.098   1_545     S
V21     Ti10    10.098   1_544     S
V21     Ti5    10.098   1_554     S
V21     Er41    9.804   .     S
V21     Er51    9.804   1_455     S
V21     Er56    9.804   1_445     S
V22     Ti16    10.098   1_445     S
V22     Ti17    10.098   1_445     S
V22     Ti7    10.098   1_545     S
V22     Ti6    10.098   1_545     S
V22     Er42    9.804   .     S
V22     Er52    9.804   1_455     S
V22     Er57    9.804   1_445     S
V23     Ti17    10.098   1_445     S
V23     Ti18    10.098   1_445     S
V23     Ti8    10.098   1_545     S
V23     Ti7    10.098   1_545     S
V23     Er43    9.804   .     S
V23     Er53    9.804   1_455     S
V23     Er58    9.804   1_445     S
V24     Ti18    10.098   1_445     S
V24     Ti19    10.098   1_445     S
V24     Ti9    10.098   1_545     S
V24     Ti8    10.098   1_545     S
V24     Er44    9.804   .     S
V24     Er54    9.804   1_455     S
V24     Er59    9.804   1_445     S
V25     Ti19    10.098   1_445     S
V25     Ti20    10.098   1_445     S
V25     Ti10    10.098   1_545     S
V25     Ti9    10.098   1_545     S
V25     Er45    9.804   .     S
V25     Er55    9.804   1_455     S
V25     Er60    9.804   1_445     S
V26     Ti15    10.098   1_454     S
V26     Ti11    10.098   1_455     S
V26     Ti5    10.098   1_554     S
V26     Ti10    10.098   1_554     S
V26     Er46    9.804   .     S
V26     Er56    9.804   1_455     S
V26     Er51    9.804   1_455     S
V27     Ti11    10.098   1_455     S
V27     Ti12    10.098   1_455     S
V27     Er47    9.804   .     S
V27     Er57    9.804   1_455     S
V27     Er52    9.804   1_455     S
V28     Ti12    10.098   1_455     S
V28     Ti13    10.098   1_455     S
V28     Er48    9.804   .     S
V28     Er58    9.804   1_455     S
V28     Er53    9.804   1_455     S
V29     Ti13    10.098   1_455     S
V29     Ti14    10.098   1_455     S
V29     Er49    9.804   .     S
V29     Er59    9.804   1_455     S
V29     Er54    9.804   1_455     S
V30     Ti14    10.098   1_455     S
V30     Ti15    10.098   1_455     S
V30     Er50    9.804   .     S
V30     Er60    9.804   1_455     S
V30     Er55    9.804   1_455     S
V31     Ti10    10.098   1_544     S
V31     Ti6    10.098   1_545     S
V31     Ti16    10.098   1_545     S
V31     Ti20    10.098   1_544     S
V31     Ti15    10.098   1_554     S
V31     Er51    9.804   .     S
V31     Er41    9.804   .     S
V31     Er46    9.804   1_545     S
V32     Ti6    10.098   1_545     S
V32     Ti7    10.098   1_545     S
V32     Ti17    10.098   1_545     S
V32     Ti16    10.098   1_545     S
V32     Er52    9.804   .     S
V32     Er42    9.804   .     S
V32     Er47    9.804   1_545     S
V33     Ti7    10.098   1_545     S
V33     Ti8    10.098   1_545     S
V33     Ti18    10.098   1_545     S
V33     Ti17    10.098   1_545     S
V33     Er53    9.804   .     S
V33     Er43    9.804   .     S
V33     Er48    9.804   1_545     S
V34     Ti8    10.098   1_545     S
V34     Ti9    10.098   1_545     S
V34     Ti19    10.098   1_545     S
V34     Ti18    10.098   1_545     S
V34     Er54    9.804   .     S
V34     Er44    9.804   .     S
V34     Er49    9.804   1_545     S
V35     Ti9    10.098   1_545     S
V35     Ti10    10.098   1_545     S
V35     Ti20    10.098   1_545     S
V35     Ti19    10.098   1_545     S
V35     Er55    9.804   .     S
V35     Er45    9.804   .     S
V35     Er50    9.804   1_545     S
V36     Ti5    10.098   1_554     S
V36     Ti15    10.098   1_554     S
V36     Ti20    10.098   1_554     S
V36     Er56    9.804   .     S
V36     Er46    9.804   .     S
V36     Er41    9.804   .     S
V37     Er57    9.804   .     S
V37     Er47    9.804   .     S
V37     Er42    9.804   .     S
V38     Er58    9.804   .     S
V38     Er48    9.804   .     S
V38     Er43    9.804   .     S
V39     Er59    9.804   .     S
V39     Er49    9.804   .     S
V39     Er44    9.804   .     S
V40     Er60    9.804   .     S
V40     Er50    9.804   .     S
V40     Er45    9.804   .     S
Er46     V31    9.804   1_565     S
Er47     V32    9.804   1_565     S
Er48     V33    9.804   1_565     S
Er49     V34    9.804   1_565     S
Er50     V35    9.804   1_565     S
Er51     V21    9.804   1_655     S
Er51     V26    9.804   1_655     S
Er52     V22    9.804   1_655     S
Er52     V27    9.804   1_655     S
Er53     V23    9.804   1_655     S
Er53     V28    9.804   1_655     S
Er54     V24    9.804   1_655     S
Er54     V29    9.804   1_655     S
Er55     V25    9.804   1_655     S
Er55     V30    9.804   1_655     S
Er56     V26    9.804   1_655     S
Er56     V21    9.804   1_665     S
Er57     V27    9.804   1_655     S
Er57     V22    9.804   1_665     S
Er58     V28    9.804   1_655     S
Er58     V23    9.804   1_665     S
Er59     V29    9.804   1_655     S
Er59     V24    9.804   1_665     S
Er60     V30    9.804   1_655     S
Er60     V25    9.804   1_665     S
