data_tsq
_audit_creation_date              2019-12-31
_audit_creation_method            'Pymatgen'
_symmetry_space_group_name_H-M    'P1'
_symmetry_Int_Tables_number       1
loop_
_symmetry_equiv_pos_as_xyz
  x,y,z
_cell_length_a                    32.6598
_cell_length_b                    32.6598
_cell_length_c                    46.188
_cell_angle_alpha                 90.0
_cell_angle_beta                 90.0
_cell_angle_gamma                 90.0
loop_
_atom_site_label
_atom_site_type_symbol
_atom_site_fract_x
_atom_site_fract_y
_atom_site_fract_z
Ti1     Ti     0.25   0.0   0.25
Ti2     Ti     0.25   0.5   0.25
Ti3     Ti     0.75   0.0   0.25
Ti4     Ti     0.75   0.5   0.25
Er5     Er     0.0   0.25   0.0
Er6     Er     0.0   0.75   0.0
Er7     Er     0.5   0.25   0.0
Er8     Er     0.5   0.75   0.0
Ti9     Ti     0.25   0.0   0.75
Ti10     Ti     0.25   0.5   0.75
Ti11     Ti     0.75   0.0   0.75
Ti12     Ti     0.75   0.5   0.75
Ti13     Ti     0.0   0.25   0.75
Ti14     Ti     0.0   0.75   0.75
Ti15     Ti     0.5   0.25   0.75
Ti16     Ti     0.5   0.75   0.75
Er17     Er     0.25   0.0   0.0
Er18     Er     0.25   0.5   0.0
Er19     Er     0.75   0.0   0.0
Er20     Er     0.75   0.5   0.0
V21     V     0.25   0.25   0.875
V22     V     0.25   0.75   0.875
V23     V     0.75   0.25   0.875
V24     V     0.75   0.75   0.875
V25     V     0.25   0.25   0.125
V26     V     0.25   0.75   0.125
V27     V     0.75   0.25   0.125
V28     V     0.75   0.75   0.125
V29     V     0.0   0.0   0.625
V30     V     0.0   0.5   0.625
V31     V     0.5   0.0   0.625
V32     V     0.5   0.5   0.625
V33     V     0.0   0.0   0.375
V34     V     0.0   0.5   0.375
V35     V     0.5   0.0   0.375
V36     V     0.5   0.5   0.375
Er37     Er     0.0   0.25   0.5
Er38     Er     0.0   0.75   0.5
Er39     Er     0.5   0.25   0.5
Er40     Er     0.5   0.75   0.5
Er41     Er     0.25   0.0   0.5
Er42     Er     0.25   0.5   0.5
Er43     Er     0.75   0.0   0.5
Er44     Er     0.75   0.5   0.5
Ti45     Ti     0.0   0.25   0.25
Ti46     Ti     0.0   0.75   0.25
Ti47     Ti     0.5   0.25   0.25
Ti48     Ti     0.5   0.75   0.25
loop_
_geom_bond_atom_site_label_1
_geom_bond_atom_site_label_2
_geom_bond_distance
_geom_bond_site_symmetry_2
_ccdc_geom_bond_type
Ti1     V26    10.0   1_545     S
Ti1     V33    10.0   .     S
Ti1     V25    10.0   .     S
Ti1     V35    10.0   .     S
Ti2     V25    10.0   .     S
Ti2     V34    10.0   .     S
Ti2     V26    10.0   .     S
Ti2     V36    10.0   .     S
Ti3     V28    10.0   1_545     S
Ti3     V35    10.0   .     S
Ti3     V27    10.0   .     S
Ti3     V33    10.0   1_655     S
Ti4     V27    10.0   .     S
Ti4     V36    10.0   .     S
Ti4     V28    10.0   .     S
Ti4     V34    10.0   1_655     S
Er5     V23    10.0   1_454     S
Er5     V21    10.0   1_554     S
Er5     V27    10.0   1_455     S
Er5     V25    10.0   .     S
Er6     V24    10.0   1_454     S
Er6     V22    10.0   1_554     S
Er6     V28    10.0   1_455     S
Er6     V26    10.0   .     S
Er7     V21    10.0   1_554     S
Er7     V23    10.0   1_554     S
Er7     V25    10.0   .     S
Er7     V27    10.0   .     S
Er8     V22    10.0   1_554     S
Er8     V24    10.0   1_554     S
Er8     V26    10.0   .     S
Er8     V28    10.0   .     S
Ti9     V22    10.0   1_545     S
Ti9     V21    10.0   .     S
Ti9     V29    10.0   .     S
Ti9     V31    10.0   .     S
Ti10     V21    10.0   .     S
Ti10     V22    10.0   .     S
Ti10     V30    10.0   .     S
Ti10     V32    10.0   .     S
Ti11     V24    10.0   1_545     S
Ti11     V23    10.0   .     S
Ti11     V31    10.0   .     S
Ti11     V29    10.0   1_655     S
Ti12     V23    10.0   .     S
Ti12     V24    10.0   .     S
Ti12     V32    10.0   .     S
Ti12     V30    10.0   1_655     S
Ti13     V23    10.0   1_455     S
Ti13     V21    10.0   .     S
Ti13     V30    10.0   .     S
Ti13     V29    10.0   .     S
Ti14     V24    10.0   1_455     S
Ti14     V22    10.0   .     S
Ti14     V29    10.0   1_565     S
Ti14     V30    10.0   .     S
Ti15     V21    10.0   .     S
Ti15     V23    10.0   .     S
Ti15     V32    10.0   .     S
Ti15     V31    10.0   .     S
Ti16     V22    10.0   .     S
Ti16     V24    10.0   .     S
Ti16     V31    10.0   1_565     S
Ti16     V32    10.0   .     S
Er17     V22    10.0   1_544     S
Er17     V21    10.0   1_554     S
Er17     V26    10.0   1_545     S
Er17     V25    10.0   .     S
Er18     V21    10.0   1_554     S
Er18     V22    10.0   1_554     S
Er18     V25    10.0   .     S
Er18     V26    10.0   .     S
Er19     V24    10.0   1_544     S
Er19     V23    10.0   1_554     S
Er19     V28    10.0   1_545     S
Er19     V27    10.0   .     S
Er20     V23    10.0   1_554     S
Er20     V24    10.0   1_554     S
Er20     V27    10.0   .     S
Er20     V28    10.0   .     S
V21     Er7    10.0   1_556     S
V21     Er18    10.0   1_556     S
V21     Er17    10.0   1_556     S
V21     Er5    10.0   1_556     S
V22     Er8    10.0   1_556     S
V22     Ti9    10.0   1_565     S
V22     Er17    10.0   1_566     S
V22     Er18    10.0   1_556     S
V22     Er6    10.0   1_556     S
V23     Er5    10.0   1_656     S
V23     Ti13    10.0   1_655     S
V23     Er20    10.0   1_556     S
V23     Er19    10.0   1_556     S
V23     Er7    10.0   1_556     S
V24     Er6    10.0   1_656     S
V24     Ti11    10.0   1_565     S
V24     Ti14    10.0   1_655     S
V24     Er19    10.0   1_566     S
V24     Er20    10.0   1_556     S
V24     Er8    10.0   1_556     S
V25     Ti47    10.0   .     S
V25     Ti45    10.0   .     S
V26     Ti1    10.0   1_565     S
V26     Er17    10.0   1_565     S
V26     Ti48    10.0   .     S
V26     Ti46    10.0   .     S
V27     Er5    10.0   1_655     S
V27     Ti45    10.0   1_655     S
V27     Ti47    10.0   .     S
V28     Ti3    10.0   1_565     S
V28     Er6    10.0   1_655     S
V28     Er19    10.0   1_565     S
V28     Ti46    10.0   1_655     S
V28     Ti48    10.0   .     S
V29     Er38    10.0   1_545     S
V29     Er43    10.0   1_455     S
V29     Er41    10.0   .     S
V29     Er37    10.0   .     S
V29     Ti14    10.0   1_545     S
V29     Ti11    10.0   1_455     S
V30     Er37    10.0   .     S
V30     Er44    10.0   1_455     S
V30     Er42    10.0   .     S
V30     Er38    10.0   .     S
V30     Ti12    10.0   1_455     S
V31     Er40    10.0   1_545     S
V31     Er41    10.0   .     S
V31     Er43    10.0   .     S
V31     Er39    10.0   .     S
V31     Ti16    10.0   1_545     S
V32     Er39    10.0   .     S
V32     Er42    10.0   .     S
V32     Er44    10.0   .     S
V32     Er40    10.0   .     S
V33     Ti3    10.0   1_455     S
V33     Er43    10.0   1_455     S
V33     Er38    10.0   1_545     S
V33     Er37    10.0   .     S
V33     Er41    10.0   .     S
V33     Ti45    10.0   .     S
V33     Ti46    10.0   1_545     S
V34     Ti4    10.0   1_455     S
V34     Er44    10.0   1_455     S
V34     Er37    10.0   .     S
V34     Er38    10.0   .     S
V34     Er42    10.0   .     S
V34     Ti46    10.0   .     S
V34     Ti45    10.0   .     S
V35     Er41    10.0   .     S
V35     Er40    10.0   1_545     S
V35     Er39    10.0   .     S
V35     Er43    10.0   .     S
V35     Ti47    10.0   .     S
V35     Ti48    10.0   1_545     S
V36     Er42    10.0   .     S
V36     Er39    10.0   .     S
V36     Er40    10.0   .     S
V36     Er44    10.0   .     S
V36     Ti48    10.0   .     S
V36     Ti47    10.0   .     S
Er38     V29    10.0   1_565     S
Er38     V33    10.0   1_565     S
Er40     V31    10.0   1_565     S
Er40     V35    10.0   1_565     S
Er43     V29    10.0   1_655     S
Er43     V33    10.0   1_655     S
Er44     V30    10.0   1_655     S
Er44     V34    10.0   1_655     S
Ti45     V27    10.0   1_455     S
Ti46     V28    10.0   1_455     S
Ti46     V33    10.0   1_565     S
Ti48     V35    10.0   1_565     S
