data_ttv
_audit_creation_date              2019-12-31
_audit_creation_method            'Pymatgen'
_symmetry_space_group_name_H-M    'P1'
_symmetry_Int_Tables_number       1
loop_
_symmetry_equiv_pos_as_xyz
  x,y,z
_cell_length_a                    36.4576
_cell_length_b                    36.4576
_cell_length_c                    36.4576
_cell_angle_alpha                 90.0
_cell_angle_beta                 90.0
_cell_angle_gamma                 90.0
loop_
_atom_site_label
_atom_site_type_symbol
_atom_site_fract_x
_atom_site_fract_y
_atom_site_fract_z
V1     V     0.1129   0.25   0.0
V2     V     0.1129   0.25   0.5
V3     V     0.1129   0.75   0.0
V4     V     0.1129   0.75   0.5
V5     V     0.6129   0.25   0.0
V6     V     0.6129   0.25   0.5
V7     V     0.6129   0.75   0.0
V8     V     0.6129   0.75   0.5
V9     V     0.3871   0.25   0.0
V10     V     0.3871   0.25   0.5
V11     V     0.3871   0.75   0.0
V12     V     0.3871   0.75   0.5
V13     V     0.8871   0.25   0.0
V14     V     0.8871   0.25   0.5
V15     V     0.8871   0.75   0.0
V16     V     0.8871   0.75   0.5
V17     V     0.25   0.0   0.1129
V18     V     0.25   0.0   0.6129
V19     V     0.25   0.5   0.1129
V20     V     0.25   0.5   0.6129
V21     V     0.75   0.0   0.1129
V22     V     0.75   0.0   0.6129
V23     V     0.75   0.5   0.1129
V24     V     0.75   0.5   0.6129
V25     V     0.25   0.0   0.3871
V26     V     0.25   0.0   0.8871
V27     V     0.25   0.5   0.3871
V28     V     0.25   0.5   0.8871
V29     V     0.75   0.0   0.3871
V30     V     0.75   0.0   0.8871
V31     V     0.75   0.5   0.3871
V32     V     0.75   0.5   0.8871
V33     V     0.0   0.1129   0.25
V34     V     0.0   0.1129   0.75
V35     V     0.0   0.6129   0.25
V36     V     0.0   0.6129   0.75
V37     V     0.5   0.1129   0.25
V38     V     0.5   0.1129   0.75
V39     V     0.5   0.6129   0.25
V40     V     0.5   0.6129   0.75
V41     V     0.0   0.3871   0.25
V42     V     0.0   0.3871   0.75
V43     V     0.0   0.8871   0.25
V44     V     0.0   0.8871   0.75
V45     V     0.5   0.3871   0.25
V46     V     0.5   0.3871   0.75
V47     V     0.5   0.8871   0.25
V48     V     0.5   0.8871   0.75
Er49     Er     0.0   0.0   0.0
Er50     Er     0.0   0.0   0.5
Er51     Er     0.0   0.5   0.0
Er52     Er     0.0   0.5   0.5
Er53     Er     0.5   0.0   0.0
Er54     Er     0.5   0.0   0.5
Er55     Er     0.5   0.5   0.0
Er56     Er     0.5   0.5   0.5
loop_
_geom_bond_atom_site_label_1
_geom_bond_atom_site_label_2
_geom_bond_distance
_geom_bond_site_symmetry_2
_ccdc_geom_bond_type
V1     V9    10.0   .     S
V1     Er51    10.0   .     S
V1     Er49    10.0   .     S
V2     V10    10.0   .     S
V2     Er52    10.0   .     S
V2     Er50    10.0   .     S
V3     V11    10.0   .     S
V3     Er49    10.0   1_565     S
V3     Er51    10.0   .     S
V4     V12    10.0   .     S
V4     Er50    10.0   1_565     S
V4     Er52    10.0   .     S
V5     V13    10.0   .     S
V5     Er55    10.0   .     S
V5     Er53    10.0   .     S
V6     V14    10.0   .     S
V6     Er56    10.0   .     S
V6     Er54    10.0   .     S
V7     V15    10.0   .     S
V7     Er53    10.0   1_565     S
V7     Er55    10.0   .     S
V8     V16    10.0   .     S
V8     Er54    10.0   1_565     S
V8     Er56    10.0   .     S
V9     Er55    10.0   .     S
V9     Er53    10.0   .     S
V10     Er56    10.0   .     S
V10     Er54    10.0   .     S
V11     Er53    10.0   1_565     S
V11     Er55    10.0   .     S
V12     Er54    10.0   1_565     S
V12     Er56    10.0   .     S
V13     Er51    10.0   1_655     S
V13     Er49    10.0   1_655     S
V14     Er52    10.0   1_655     S
V14     Er50    10.0   1_655     S
V15     Er49    10.0   1_665     S
V15     Er51    10.0   1_655     S
V16     Er50    10.0   1_665     S
V16     Er52    10.0   1_655     S
V17     V25    10.0   .     S
V17     Er53    10.0   .     S
V17     Er49    10.0   .     S
V18     V26    10.0   .     S
V18     Er54    10.0   .     S
V18     Er50    10.0   .     S
V19     V27    10.0   .     S
V19     Er55    10.0   .     S
V19     Er51    10.0   .     S
V20     V28    10.0   .     S
V20     Er56    10.0   .     S
V20     Er52    10.0   .     S
V21     V29    10.0   .     S
V21     Er49    10.0   1_655     S
V21     Er53    10.0   .     S
V22     V30    10.0   .     S
V22     Er50    10.0   1_655     S
V22     Er54    10.0   .     S
V23     V31    10.0   .     S
V23     Er51    10.0   1_655     S
V23     Er55    10.0   .     S
V24     V32    10.0   .     S
V24     Er52    10.0   1_655     S
V24     Er56    10.0   .     S
V25     Er54    10.0   .     S
V25     Er50    10.0   .     S
V26     Er53    10.0   1_556     S
V26     Er49    10.0   1_556     S
V27     Er56    10.0   .     S
V27     Er52    10.0   .     S
V28     Er55    10.0   1_556     S
V28     Er51    10.0   1_556     S
V29     Er50    10.0   1_655     S
V29     Er54    10.0   .     S
V30     Er49    10.0   1_656     S
V30     Er53    10.0   1_556     S
V31     Er52    10.0   1_655     S
V31     Er56    10.0   .     S
V32     Er51    10.0   1_656     S
V32     Er55    10.0   1_556     S
V33     V41    10.0   .     S
V33     Er50    10.0   .     S
V33     Er49    10.0   .     S
V34     V42    10.0   .     S
V34     Er49    10.0   1_556     S
V34     Er50    10.0   .     S
V35     V43    10.0   .     S
V35     Er52    10.0   .     S
V35     Er51    10.0   .     S
V36     V44    10.0   .     S
V36     Er51    10.0   1_556     S
V36     Er52    10.0   .     S
V37     V45    10.0   .     S
V37     Er54    10.0   .     S
V37     Er53    10.0   .     S
V38     V46    10.0   .     S
V38     Er53    10.0   1_556     S
V38     Er54    10.0   .     S
V39     V47    10.0   .     S
V39     Er56    10.0   .     S
V39     Er55    10.0   .     S
V40     V48    10.0   .     S
V40     Er55    10.0   1_556     S
V40     Er56    10.0   .     S
V41     Er52    10.0   .     S
V41     Er51    10.0   .     S
V42     Er51    10.0   1_556     S
V42     Er52    10.0   .     S
V43     Er50    10.0   1_565     S
V43     Er49    10.0   1_565     S
V44     Er49    10.0   1_566     S
V44     Er50    10.0   1_565     S
V45     Er56    10.0   .     S
V45     Er55    10.0   .     S
V46     Er55    10.0   1_556     S
V46     Er56    10.0   .     S
V47     Er54    10.0   1_565     S
V47     Er53    10.0   1_565     S
V48     Er53    10.0   1_566     S
V48     Er54    10.0   1_565     S
Er49     V3    10.0   1_545     S
Er49     V15    10.0   1_445     S
Er49     V13    10.0   1_455     S
Er49     V21    10.0   1_455     S
Er49     V30    10.0   1_454     S
Er49     V26    10.0   1_554     S
Er49     V44    10.0   1_544     S
Er49     V34    10.0   1_554     S
Er49     V43    10.0   1_545     S
Er50     V4    10.0   1_545     S
Er50     V16    10.0   1_445     S
Er50     V14    10.0   1_455     S
Er50     V22    10.0   1_455     S
Er50     V29    10.0   1_455     S
Er50     V43    10.0   1_545     S
Er50     V44    10.0   1_545     S
Er51     V13    10.0   1_455     S
Er51     V15    10.0   1_455     S
Er51     V23    10.0   1_455     S
Er51     V32    10.0   1_454     S
Er51     V28    10.0   1_554     S
Er51     V42    10.0   1_554     S
Er51     V36    10.0   1_554     S
Er52     V14    10.0   1_455     S
Er52     V16    10.0   1_455     S
Er52     V24    10.0   1_455     S
Er52     V31    10.0   1_455     S
Er53     V7    10.0   1_545     S
Er53     V11    10.0   1_545     S
Er53     V26    10.0   1_554     S
Er53     V30    10.0   1_554     S
Er53     V48    10.0   1_544     S
Er53     V38    10.0   1_554     S
Er53     V47    10.0   1_545     S
Er54     V8    10.0   1_545     S
Er54     V12    10.0   1_545     S
Er54     V47    10.0   1_545     S
Er54     V48    10.0   1_545     S
Er55     V28    10.0   1_554     S
Er55     V32    10.0   1_554     S
Er55     V46    10.0   1_554     S
Er55     V40    10.0   1_554     S
