data_ttx
_audit_creation_date              2019-12-31
_audit_creation_method            'Pymatgen'
_symmetry_space_group_name_H-M    'P1'
_symmetry_Int_Tables_number       1
loop_
_symmetry_equiv_pos_as_xyz
  x,y,z
_cell_length_a                    31.1956
_cell_length_b                    31.1956
_cell_length_c                    37.391
_cell_angle_alpha                 90.0
_cell_angle_beta                 90.0
_cell_angle_gamma                 120.0
loop_
_atom_site_label
_atom_site_type_symbol
_atom_site_fract_x
_atom_site_fract_y
_atom_site_fract_z
Er1     Er     0.5   0.0   0.1163
Er2     Er     0.5   0.0   0.6163
Er3     Er     0.5   0.0   0.3837
Er4     Er     0.5   0.0   0.8837
V5     V     0.6667   0.3333   0.0
V6     V     0.6667   0.3333   0.5
Er7     Er     0.5   0.5   0.1163
Er8     Er     0.5   0.5   0.6163
Er9     Er     0.5   0.5   0.3837
Er10     Er     0.5   0.5   0.8837
V11     V     0.3333   0.6667   0.0
V12     V     0.3333   0.6667   0.5
Er13     Er     1.0   0.5   0.1163
Er14     Er     1.0   0.5   0.6163
Er15     Er     1.0   0.5   0.3837
Er16     Er     1.0   0.5   0.8837
loop_
_geom_bond_atom_site_label_1
_geom_bond_atom_site_label_2
_geom_bond_distance
_geom_bond_site_symmetry_2
_ccdc_geom_bond_type
Er1     Er3    10.0   .     S
Er1     V5    10.0   .     S
Er1     V11    10.0   1_545     S
Er2     Er4    10.0   .     S
Er2     V6    10.0   .     S
Er2     V12    10.0   1_545     S
Er3     V6    10.0   .     S
Er3     V12    10.0   1_545     S
Er4     V5    10.0   1_556     S
Er4     V11    10.0   1_546     S
V5     Er13    10.0   .     S
V5     Er16    10.0   1_554     S
V5     Er4    10.0   1_554     S
V5     Er10    10.0   1_554     S
V5     Er7    10.0   .     S
V6     Er14    10.0   .     S
V6     Er15    10.0   .     S
V6     Er9    10.0   .     S
V6     Er8    10.0   .     S
Er7     Er9    10.0   .     S
Er7     V11    10.0   .     S
Er8     Er10    10.0   .     S
Er8     V12    10.0   .     S
Er9     V12    10.0   .     S
Er10     V5    10.0   1_556     S
Er10     V11    10.0   1_556     S
V11     Er13    10.0   1_455     S
V11     Er16    10.0   1_454     S
V11     Er4    10.0   1_564     S
V11     Er1    10.0   1_565     S
V11     Er10    10.0   1_554     S
V12     Er14    10.0   1_455     S
V12     Er15    10.0   1_455     S
V12     Er3    10.0   1_565     S
V12     Er2    10.0   1_565     S
Er13     V11    10.0   1_655     S
Er13     Er15    10.0   .     S
Er14     V12    10.0   1_655     S
Er14     Er16    10.0   .     S
Er15     V12    10.0   1_655     S
Er16     V5    10.0   1_556     S
Er16     V11    10.0   1_656     S
