data_tty
_audit_creation_date              2019-12-31
_audit_creation_method            'Pymatgen'
_symmetry_space_group_name_H-M    'P1'
_symmetry_Int_Tables_number       1
loop_
_symmetry_equiv_pos_as_xyz
  x,y,z
_cell_length_a                    36.0548
_cell_length_b                    36.0548
_cell_length_c                    37.322
_cell_angle_alpha                 90.0
_cell_angle_beta                 90.0
_cell_angle_gamma                 90.0
loop_
_atom_site_label
_atom_site_type_symbol
_atom_site_fract_x
_atom_site_fract_y
_atom_site_fract_z
V1     V     0.0   0.0   0.0
V2     V     0.0   0.0   0.5
V3     V     0.0   0.5   0.0
V4     V     0.0   0.5   0.5
V5     V     0.5   0.0   0.0
V6     V     0.5   0.0   0.5
V7     V     0.5   0.5   0.0
V8     V     0.5   0.5   0.5
Er9     Er     0.0   0.25   0.116
Er10     Er     0.0   0.25   0.616
Er11     Er     0.0   0.75   0.116
Er12     Er     0.0   0.75   0.616
Er13     Er     0.5   0.25   0.116
Er14     Er     0.5   0.25   0.616
Er15     Er     0.5   0.75   0.116
Er16     Er     0.5   0.75   0.616
Er17     Er     0.0   0.25   0.384
Er18     Er     0.0   0.25   0.884
Er19     Er     0.0   0.75   0.384
Er20     Er     0.0   0.75   0.884
Er21     Er     0.5   0.25   0.384
Er22     Er     0.5   0.25   0.884
Er23     Er     0.5   0.75   0.384
Er24     Er     0.5   0.75   0.884
Er25     Er     0.25   0.0   0.116
Er26     Er     0.25   0.0   0.616
Er27     Er     0.25   0.5   0.116
Er28     Er     0.25   0.5   0.616
Er29     Er     0.75   0.0   0.116
Er30     Er     0.75   0.0   0.616
Er31     Er     0.75   0.5   0.116
Er32     Er     0.75   0.5   0.616
Er33     Er     0.25   0.0   0.384
Er34     Er     0.25   0.0   0.884
Er35     Er     0.25   0.5   0.384
Er36     Er     0.25   0.5   0.884
Er37     Er     0.75   0.0   0.384
Er38     Er     0.75   0.0   0.884
Er39     Er     0.75   0.5   0.384
Er40     Er     0.75   0.5   0.884
loop_
_geom_bond_atom_site_label_1
_geom_bond_atom_site_label_2
_geom_bond_distance
_geom_bond_site_symmetry_2
_ccdc_geom_bond_type
V1     Er25    10.0   .     S
V1     Er34    10.0   1_554     S
V1     Er11    10.0   1_545     S
V1     Er20    10.0   1_544     S
V1     Er29    10.0   1_455     S
V1     Er38    10.0   1_454     S
V1     Er9    10.0   .     S
V1     Er18    10.0   1_554     S
V2     Er26    10.0   .     S
V2     Er33    10.0   .     S
V2     Er12    10.0   1_545     S
V2     Er19    10.0   1_545     S
V2     Er30    10.0   1_455     S
V2     Er37    10.0   1_455     S
V2     Er10    10.0   .     S
V2     Er17    10.0   .     S
V3     Er27    10.0   .     S
V3     Er36    10.0   1_554     S
V3     Er9    10.0   .     S
V3     Er18    10.0   1_554     S
V3     Er31    10.0   1_455     S
V3     Er40    10.0   1_454     S
V3     Er11    10.0   .     S
V3     Er20    10.0   1_554     S
V4     Er28    10.0   .     S
V4     Er35    10.0   .     S
V4     Er10    10.0   .     S
V4     Er17    10.0   .     S
V4     Er32    10.0   1_455     S
V4     Er39    10.0   1_455     S
V4     Er12    10.0   .     S
V4     Er19    10.0   .     S
V5     Er29    10.0   .     S
V5     Er38    10.0   1_554     S
V5     Er15    10.0   1_545     S
V5     Er24    10.0   1_544     S
V5     Er25    10.0   .     S
V5     Er34    10.0   1_554     S
V5     Er13    10.0   .     S
V5     Er22    10.0   1_554     S
V6     Er30    10.0   .     S
V6     Er37    10.0   .     S
V6     Er16    10.0   1_545     S
V6     Er23    10.0   1_545     S
V6     Er26    10.0   .     S
V6     Er33    10.0   .     S
V6     Er14    10.0   .     S
V6     Er21    10.0   .     S
V7     Er31    10.0   .     S
V7     Er40    10.0   1_554     S
V7     Er13    10.0   .     S
V7     Er22    10.0   1_554     S
V7     Er27    10.0   .     S
V7     Er36    10.0   1_554     S
V7     Er15    10.0   .     S
V7     Er24    10.0   1_554     S
V8     Er32    10.0   .     S
V8     Er39    10.0   .     S
V8     Er14    10.0   .     S
V8     Er21    10.0   .     S
V8     Er28    10.0   .     S
V8     Er35    10.0   .     S
V8     Er16    10.0   .     S
V8     Er23    10.0   .     S
Er9     Er17    10.0   .     S
Er10     Er18    10.0   .     S
Er11     V1    10.0   1_565     S
Er11     Er19    10.0   .     S
Er12     V2    10.0   1_565     S
Er12     Er20    10.0   .     S
Er13     Er21    10.0   .     S
Er14     Er22    10.0   .     S
Er15     V5    10.0   1_565     S
Er15     Er23    10.0   .     S
Er16     V6    10.0   1_565     S
Er16     Er24    10.0   .     S
Er18     V3    10.0   1_556     S
Er18     V1    10.0   1_556     S
Er19     V2    10.0   1_565     S
Er20     V1    10.0   1_566     S
Er20     V3    10.0   1_556     S
Er22     V7    10.0   1_556     S
Er22     V5    10.0   1_556     S
Er23     V6    10.0   1_565     S
Er24     V5    10.0   1_566     S
Er24     V7    10.0   1_556     S
Er25     Er33    10.0   .     S
Er26     Er34    10.0   .     S
Er27     Er35    10.0   .     S
Er28     Er36    10.0   .     S
Er29     V1    10.0   1_655     S
Er29     Er37    10.0   .     S
Er30     V2    10.0   1_655     S
Er30     Er38    10.0   .     S
Er31     V3    10.0   1_655     S
Er31     Er39    10.0   .     S
Er32     V4    10.0   1_655     S
Er32     Er40    10.0   .     S
Er34     V1    10.0   1_556     S
Er34     V5    10.0   1_556     S
Er36     V3    10.0   1_556     S
Er36     V7    10.0   1_556     S
Er37     V2    10.0   1_655     S
Er38     V5    10.0   1_556     S
Er38     V1    10.0   1_656     S
Er39     V4    10.0   1_655     S
Er40     V7    10.0   1_556     S
Er40     V3    10.0   1_656     S
