data_twf
_audit_creation_date              2019-12-31
_audit_creation_method            'Pymatgen'
_symmetry_space_group_name_H-M    'P1'
_symmetry_Int_Tables_number       1
loop_
_symmetry_equiv_pos_as_xyz
  x,y,z
_cell_length_a                    35.777
_cell_length_b                    35.777
_cell_length_c                    35.777
_cell_angle_alpha                 90.0
_cell_angle_beta                 90.0
_cell_angle_gamma                 90.0
loop_
_atom_site_label
_atom_site_type_symbol
_atom_site_fract_x
_atom_site_fract_y
_atom_site_fract_z
V1     V     0.0   0.125   0.25
V2     V     0.0   0.125   0.75
V3     V     0.0   0.625   0.25
V4     V     0.0   0.625   0.75
V5     V     0.5   0.125   0.25
V6     V     0.5   0.125   0.75
V7     V     0.5   0.625   0.25
V8     V     0.5   0.625   0.75
V9     V     0.125   0.0   0.25
V10     V     0.125   0.0   0.75
V11     V     0.125   0.5   0.25
V12     V     0.125   0.5   0.75
V13     V     0.625   0.0   0.25
V14     V     0.625   0.0   0.75
V15     V     0.625   0.5   0.25
V16     V     0.625   0.5   0.75
V17     V     0.25   0.0   0.125
V18     V     0.25   0.0   0.625
V19     V     0.25   0.5   0.125
V20     V     0.25   0.5   0.625
V21     V     0.75   0.0   0.125
V22     V     0.75   0.0   0.625
V23     V     0.75   0.5   0.125
V24     V     0.75   0.5   0.625
V25     V     0.0   0.25   0.125
V26     V     0.0   0.25   0.625
V27     V     0.0   0.75   0.125
V28     V     0.0   0.75   0.625
V29     V     0.5   0.25   0.125
V30     V     0.5   0.25   0.625
V31     V     0.5   0.75   0.125
V32     V     0.5   0.75   0.625
V33     V     0.125   0.25   0.0
V34     V     0.125   0.25   0.5
V35     V     0.125   0.75   0.0
V36     V     0.125   0.75   0.5
V37     V     0.625   0.25   0.0
V38     V     0.625   0.25   0.5
V39     V     0.625   0.75   0.0
V40     V     0.625   0.75   0.5
V41     V     0.25   0.125   0.0
V42     V     0.25   0.125   0.5
V43     V     0.25   0.625   0.0
V44     V     0.25   0.625   0.5
V45     V     0.75   0.125   0.0
V46     V     0.75   0.125   0.5
V47     V     0.75   0.625   0.0
V48     V     0.75   0.625   0.5
Er49     Er     0.0   0.0   0.0
Er50     Er     0.0   0.0   0.5
Er51     Er     0.0   0.5   0.0
Er52     Er     0.0   0.5   0.5
Er53     Er     0.5   0.0   0.0
Er54     Er     0.5   0.0   0.5
Er55     Er     0.5   0.5   0.0
Er56     Er     0.5   0.5   0.5
Er57     Er     0.25   0.25   0.25
Er58     Er     0.25   0.25   0.75
Er59     Er     0.25   0.75   0.25
Er60     Er     0.25   0.75   0.75
Er61     Er     0.75   0.25   0.25
Er62     Er     0.75   0.25   0.75
Er63     Er     0.75   0.75   0.25
Er64     Er     0.75   0.75   0.75
V65     V     0.375   0.0   0.25
V66     V     0.375   0.0   0.75
V67     V     0.375   0.5   0.25
V68     V     0.375   0.5   0.75
V69     V     0.875   0.0   0.25
V70     V     0.875   0.0   0.75
V71     V     0.875   0.5   0.25
V72     V     0.875   0.5   0.75
V73     V     0.0   0.375   0.25
V74     V     0.0   0.375   0.75
V75     V     0.0   0.875   0.25
V76     V     0.0   0.875   0.75
V77     V     0.5   0.375   0.25
V78     V     0.5   0.375   0.75
V79     V     0.5   0.875   0.25
V80     V     0.5   0.875   0.75
V81     V     0.25   0.0   0.375
V82     V     0.25   0.0   0.875
V83     V     0.25   0.5   0.375
V84     V     0.25   0.5   0.875
V85     V     0.75   0.0   0.375
V86     V     0.75   0.0   0.875
V87     V     0.75   0.5   0.375
V88     V     0.75   0.5   0.875
V89     V     0.0   0.25   0.375
V90     V     0.0   0.25   0.875
V91     V     0.0   0.75   0.375
V92     V     0.0   0.75   0.875
V93     V     0.5   0.25   0.375
V94     V     0.5   0.25   0.875
V95     V     0.5   0.75   0.375
V96     V     0.5   0.75   0.875
V97     V     0.375   0.25   0.0
V98     V     0.375   0.25   0.5
V99     V     0.375   0.75   0.0
V100     V     0.375   0.75   0.5
V101     V     0.875   0.25   0.0
V102     V     0.875   0.25   0.5
V103     V     0.875   0.75   0.0
V104     V     0.875   0.75   0.5
V105     V     0.25   0.375   0.0
V106     V     0.25   0.375   0.5
V107     V     0.25   0.875   0.0
V108     V     0.25   0.875   0.5
V109     V     0.75   0.375   0.0
V110     V     0.75   0.375   0.5
V111     V     0.75   0.875   0.0
V112     V     0.75   0.875   0.5
loop_
_geom_bond_atom_site_label_1
_geom_bond_atom_site_label_2
_geom_bond_distance
_geom_bond_site_symmetry_2
_ccdc_geom_bond_type
V1     Er61    10.0   1_455     S
V1     Er57    10.0   .     S
V1     Er50    10.0   .     S
V1     Er49    10.0   .     S
V2     Er62    10.0   1_455     S
V2     Er58    10.0   .     S
V2     Er49    10.0   1_556     S
V2     Er50    10.0   .     S
V3     Er63    10.0   1_455     S
V3     Er59    10.0   .     S
V3     Er52    10.0   .     S
V3     Er51    10.0   .     S
V4     Er64    10.0   1_455     S
V4     Er60    10.0   .     S
V4     Er51    10.0   1_556     S
V4     Er52    10.0   .     S
V5     Er57    10.0   .     S
V5     Er61    10.0   .     S
V5     Er54    10.0   .     S
V5     Er53    10.0   .     S
V6     Er58    10.0   .     S
V6     Er62    10.0   .     S
V6     Er53    10.0   1_556     S
V6     Er54    10.0   .     S
V7     Er59    10.0   .     S
V7     Er63    10.0   .     S
V7     Er56    10.0   .     S
V7     Er55    10.0   .     S
V8     Er60    10.0   .     S
V8     Er64    10.0   .     S
V8     Er55    10.0   1_556     S
V8     Er56    10.0   .     S
V9     Er59    10.0   1_545     S
V9     Er57    10.0   .     S
V9     Er50    10.0   .     S
V9     Er49    10.0   .     S
V10     Er60    10.0   1_545     S
V10     Er58    10.0   .     S
V10     Er49    10.0   1_556     S
V10     Er50    10.0   .     S
V11     Er57    10.0   .     S
V11     Er59    10.0   .     S
V11     Er52    10.0   .     S
V11     Er51    10.0   .     S
V12     Er58    10.0   .     S
V12     Er60    10.0   .     S
V12     Er51    10.0   1_556     S
V12     Er52    10.0   .     S
V13     Er63    10.0   1_545     S
V13     Er61    10.0   .     S
V13     Er54    10.0   .     S
V13     Er53    10.0   .     S
V14     Er64    10.0   1_545     S
V14     Er62    10.0   .     S
V14     Er53    10.0   1_556     S
V14     Er54    10.0   .     S
V15     Er61    10.0   .     S
V15     Er63    10.0   .     S
V15     Er56    10.0   .     S
V15     Er55    10.0   .     S
V16     Er62    10.0   .     S
V16     Er64    10.0   .     S
V16     Er55    10.0   1_556     S
V16     Er56    10.0   .     S
V17     Er59    10.0   1_545     S
V17     Er57    10.0   .     S
V17     Er53    10.0   .     S
V17     Er49    10.0   .     S
V18     Er60    10.0   1_545     S
V18     Er58    10.0   .     S
V18     Er54    10.0   .     S
V18     Er50    10.0   .     S
V19     Er57    10.0   .     S
V19     Er59    10.0   .     S
V19     Er55    10.0   .     S
V19     Er51    10.0   .     S
V20     Er58    10.0   .     S
V20     Er60    10.0   .     S
V20     Er56    10.0   .     S
V20     Er52    10.0   .     S
V21     Er63    10.0   1_545     S
V21     Er61    10.0   .     S
V21     Er49    10.0   1_655     S
V21     Er53    10.0   .     S
V22     Er64    10.0   1_545     S
V22     Er62    10.0   .     S
V22     Er50    10.0   1_655     S
V22     Er54    10.0   .     S
V23     Er61    10.0   .     S
V23     Er63    10.0   .     S
V23     Er51    10.0   1_655     S
V23     Er55    10.0   .     S
V24     Er62    10.0   .     S
V24     Er64    10.0   .     S
V24     Er52    10.0   1_655     S
V24     Er56    10.0   .     S
V25     Er61    10.0   1_455     S
V25     Er57    10.0   .     S
V25     Er51    10.0   .     S
V25     Er49    10.0   .     S
V26     Er62    10.0   1_455     S
V26     Er58    10.0   .     S
V26     Er52    10.0   .     S
V26     Er50    10.0   .     S
V27     Er63    10.0   1_455     S
V27     Er59    10.0   .     S
V27     Er49    10.0   1_565     S
V27     Er51    10.0   .     S
V28     Er64    10.0   1_455     S
V28     Er60    10.0   .     S
V28     Er50    10.0   1_565     S
V28     Er52    10.0   .     S
V29     Er57    10.0   .     S
V29     Er61    10.0   .     S
V29     Er55    10.0   .     S
V29     Er53    10.0   .     S
V30     Er58    10.0   .     S
V30     Er62    10.0   .     S
V30     Er56    10.0   .     S
V30     Er54    10.0   .     S
V31     Er59    10.0   .     S
V31     Er63    10.0   .     S
V31     Er53    10.0   1_565     S
V31     Er55    10.0   .     S
V32     Er60    10.0   .     S
V32     Er64    10.0   .     S
V32     Er54    10.0   1_565     S
V32     Er56    10.0   .     S
V33     Er58    10.0   1_554     S
V33     Er57    10.0   .     S
V33     Er51    10.0   .     S
V33     Er49    10.0   .     S
V34     Er57    10.0   .     S
V34     Er58    10.0   .     S
V34     Er52    10.0   .     S
V34     Er50    10.0   .     S
V35     Er60    10.0   1_554     S
V35     Er59    10.0   .     S
V35     Er49    10.0   1_565     S
V35     Er51    10.0   .     S
V36     Er59    10.0   .     S
V36     Er60    10.0   .     S
V36     Er50    10.0   1_565     S
V36     Er52    10.0   .     S
V37     Er62    10.0   1_554     S
V37     Er61    10.0   .     S
V37     Er55    10.0   .     S
V37     Er53    10.0   .     S
V38     Er61    10.0   .     S
V38     Er62    10.0   .     S
V38     Er56    10.0   .     S
V38     Er54    10.0   .     S
V39     Er64    10.0   1_554     S
V39     Er63    10.0   .     S
V39     Er53    10.0   1_565     S
V39     Er55    10.0   .     S
V40     Er63    10.0   .     S
V40     Er64    10.0   .     S
V40     Er54    10.0   1_565     S
V40     Er56    10.0   .     S
V41     Er58    10.0   1_554     S
V41     Er57    10.0   .     S
V41     Er53    10.0   .     S
V41     Er49    10.0   .     S
V42     Er57    10.0   .     S
V42     Er58    10.0   .     S
V42     Er54    10.0   .     S
V42     Er50    10.0   .     S
V43     Er60    10.0   1_554     S
V43     Er59    10.0   .     S
V43     Er55    10.0   .     S
V43     Er51    10.0   .     S
V44     Er59    10.0   .     S
V44     Er60    10.0   .     S
V44     Er56    10.0   .     S
V44     Er52    10.0   .     S
V45     Er62    10.0   1_554     S
V45     Er61    10.0   .     S
V45     Er49    10.0   1_655     S
V45     Er53    10.0   .     S
V46     Er61    10.0   .     S
V46     Er62    10.0   .     S
V46     Er50    10.0   1_655     S
V46     Er54    10.0   .     S
V47     Er64    10.0   1_554     S
V47     Er63    10.0   .     S
V47     Er51    10.0   1_655     S
V47     Er55    10.0   .     S
V48     Er63    10.0   .     S
V48     Er64    10.0   .     S
V48     Er52    10.0   1_655     S
V48     Er56    10.0   .     S
Er49     V92    10.0   1_544     S
Er49     V103    10.0   1_445     S
Er49     V27    10.0   1_545     S
Er49     V35    10.0   1_545     S
Er49     V86    10.0   1_454     S
Er49     V111    10.0   1_445     S
Er49     V21    10.0   1_455     S
Er49     V45    10.0   1_455     S
Er49     V76    10.0   1_544     S
Er49     V70    10.0   1_454     S
Er49     V10    10.0   1_554     S
Er49     V2    10.0   1_554     S
Er49     V90    10.0   1_554     S
Er49     V101    10.0   1_455     S
Er49     V69    10.0   1_455     S
Er49     V75    10.0   1_545     S
Er49     V82    10.0   1_554     S
Er49     V107    10.0   1_545     S
Er50     V91    10.0   1_545     S
Er50     V104    10.0   1_445     S
Er50     V28    10.0   1_545     S
Er50     V36    10.0   1_545     S
Er50     V85    10.0   1_455     S
Er50     V112    10.0   1_445     S
Er50     V22    10.0   1_455     S
Er50     V46    10.0   1_455     S
Er50     V75    10.0   1_545     S
Er50     V69    10.0   1_455     S
Er50     V89    10.0   .     S
Er50     V102    10.0   1_455     S
Er50     V70    10.0   1_455     S
Er50     V76    10.0   1_545     S
Er50     V81    10.0   .     S
Er50     V108    10.0   1_545     S
Er51     V90    10.0   1_554     S
Er51     V101    10.0   1_455     S
Er51     V88    10.0   1_454     S
Er51     V109    10.0   1_455     S
Er51     V23    10.0   1_455     S
Er51     V47    10.0   1_455     S
Er51     V74    10.0   1_554     S
Er51     V72    10.0   1_454     S
Er51     V12    10.0   1_554     S
Er51     V4    10.0   1_554     S
Er51     V92    10.0   1_554     S
Er51     V103    10.0   1_455     S
Er51     V71    10.0   1_455     S
Er51     V73    10.0   .     S
Er51     V84    10.0   1_554     S
Er51     V105    10.0   .     S
Er52     V89    10.0   .     S
Er52     V102    10.0   1_455     S
Er52     V87    10.0   1_455     S
Er52     V110    10.0   1_455     S
Er52     V24    10.0   1_455     S
Er52     V48    10.0   1_455     S
Er52     V73    10.0   .     S
Er52     V71    10.0   1_455     S
Er52     V91    10.0   .     S
Er52     V104    10.0   1_455     S
Er52     V72    10.0   1_455     S
Er52     V74    10.0   .     S
Er52     V83    10.0   .     S
Er52     V106    10.0   .     S
Er53     V96    10.0   1_544     S
Er53     V99    10.0   1_545     S
Er53     V31    10.0   1_545     S
Er53     V39    10.0   1_545     S
Er53     V82    10.0   1_554     S
Er53     V107    10.0   1_545     S
Er53     V80    10.0   1_544     S
Er53     V66    10.0   1_554     S
Er53     V14    10.0   1_554     S
Er53     V6    10.0   1_554     S
Er53     V94    10.0   1_554     S
Er53     V97    10.0   .     S
Er53     V65    10.0   .     S
Er53     V79    10.0   1_545     S
Er53     V86    10.0   1_554     S
Er53     V111    10.0   1_545     S
Er54     V95    10.0   1_545     S
Er54     V100    10.0   1_545     S
Er54     V32    10.0   1_545     S
Er54     V40    10.0   1_545     S
Er54     V81    10.0   .     S
Er54     V108    10.0   1_545     S
Er54     V79    10.0   1_545     S
Er54     V65    10.0   .     S
Er54     V93    10.0   .     S
Er54     V98    10.0   .     S
Er54     V66    10.0   .     S
Er54     V80    10.0   1_545     S
Er54     V85    10.0   .     S
Er54     V112    10.0   1_545     S
Er55     V94    10.0   1_554     S
Er55     V97    10.0   .     S
Er55     V84    10.0   1_554     S
Er55     V105    10.0   .     S
Er55     V78    10.0   1_554     S
Er55     V68    10.0   1_554     S
Er55     V16    10.0   1_554     S
Er55     V8    10.0   1_554     S
Er55     V96    10.0   1_554     S
Er55     V99    10.0   .     S
Er55     V67    10.0   .     S
Er55     V77    10.0   .     S
Er55     V88    10.0   1_554     S
Er55     V109    10.0   .     S
Er56     V93    10.0   .     S
Er56     V98    10.0   .     S
Er56     V83    10.0   .     S
Er56     V106    10.0   .     S
Er56     V77    10.0   .     S
Er56     V67    10.0   .     S
Er56     V95    10.0   .     S
Er56     V100    10.0   .     S
Er56     V68    10.0   .     S
Er56     V78    10.0   .     S
Er56     V87    10.0   .     S
Er56     V110    10.0   .     S
Er57     V83    10.0   .     S
Er57     V67    10.0   .     S
Er57     V93    10.0   .     S
Er57     V77    10.0   .     S
Er57     V106    10.0   .     S
Er57     V98    10.0   .     S
Er57     V81    10.0   .     S
Er57     V65    10.0   .     S
Er57     V89    10.0   .     S
Er57     V73    10.0   .     S
Er57     V97    10.0   .     S
Er57     V105    10.0   .     S
Er58     V84    10.0   .     S
Er58     V68    10.0   .     S
Er58     V94    10.0   .     S
Er58     V78    10.0   .     S
Er58     V105    10.0   1_556     S
Er58     V97    10.0   1_556     S
Er58     V33    10.0   1_556     S
Er58     V41    10.0   1_556     S
Er58     V82    10.0   .     S
Er58     V66    10.0   .     S
Er58     V90    10.0   .     S
Er58     V74    10.0   .     S
Er58     V98    10.0   .     S
Er58     V106    10.0   .     S
Er59     V81    10.0   1_565     S
Er59     V65    10.0   1_565     S
Er59     V17    10.0   1_565     S
Er59     V9    10.0   1_565     S
Er59     V95    10.0   .     S
Er59     V79    10.0   .     S
Er59     V108    10.0   .     S
Er59     V100    10.0   .     S
Er59     V83    10.0   .     S
Er59     V67    10.0   .     S
Er59     V91    10.0   .     S
Er59     V75    10.0   .     S
Er59     V99    10.0   .     S
Er59     V107    10.0   .     S
Er60     V82    10.0   1_565     S
Er60     V66    10.0   1_565     S
Er60     V18    10.0   1_565     S
Er60     V10    10.0   1_565     S
Er60     V96    10.0   .     S
Er60     V80    10.0   .     S
Er60     V107    10.0   1_556     S
Er60     V99    10.0   1_556     S
Er60     V35    10.0   1_556     S
Er60     V43    10.0   1_556     S
Er60     V84    10.0   .     S
Er60     V68    10.0   .     S
Er60     V92    10.0   .     S
Er60     V76    10.0   .     S
Er60     V100    10.0   .     S
Er60     V108    10.0   .     S
Er61     V87    10.0   .     S
Er61     V71    10.0   .     S
Er61     V89    10.0   1_655     S
Er61     V73    10.0   1_655     S
Er61     V25    10.0   1_655     S
Er61     V1    10.0   1_655     S
Er61     V110    10.0   .     S
Er61     V102    10.0   .     S
Er61     V85    10.0   .     S
Er61     V69    10.0   .     S
Er61     V93    10.0   .     S
Er61     V77    10.0   .     S
Er61     V101    10.0   .     S
Er61     V109    10.0   .     S
Er62     V88    10.0   .     S
Er62     V72    10.0   .     S
Er62     V90    10.0   1_655     S
Er62     V74    10.0   1_655     S
Er62     V26    10.0   1_655     S
Er62     V2    10.0   1_655     S
Er62     V109    10.0   1_556     S
Er62     V101    10.0   1_556     S
Er62     V37    10.0   1_556     S
Er62     V45    10.0   1_556     S
Er62     V86    10.0   .     S
Er62     V70    10.0   .     S
Er62     V94    10.0   .     S
Er62     V78    10.0   .     S
Er62     V102    10.0   .     S
Er62     V110    10.0   .     S
Er63     V85    10.0   1_565     S
Er63     V69    10.0   1_565     S
Er63     V21    10.0   1_565     S
Er63     V13    10.0   1_565     S
Er63     V91    10.0   1_655     S
Er63     V75    10.0   1_655     S
Er63     V27    10.0   1_655     S
Er63     V3    10.0   1_655     S
Er63     V112    10.0   .     S
Er63     V104    10.0   .     S
Er63     V87    10.0   .     S
Er63     V71    10.0   .     S
Er63     V95    10.0   .     S
Er63     V79    10.0   .     S
Er63     V103    10.0   .     S
Er63     V111    10.0   .     S
Er64     V86    10.0   1_565     S
Er64     V70    10.0   1_565     S
Er64     V22    10.0   1_565     S
Er64     V14    10.0   1_565     S
Er64     V92    10.0   1_655     S
Er64     V76    10.0   1_655     S
Er64     V28    10.0   1_655     S
Er64     V4    10.0   1_655     S
Er64     V111    10.0   1_556     S
Er64     V103    10.0   1_556     S
Er64     V39    10.0   1_556     S
Er64     V47    10.0   1_556     S
Er64     V88    10.0   .     S
Er64     V72    10.0   .     S
Er64     V96    10.0   .     S
Er64     V80    10.0   .     S
Er64     V104    10.0   .     S
Er64     V112    10.0   .     S
V65     Er59    10.0   1_545     S
V66     Er60    10.0   1_545     S
V66     Er53    10.0   1_556     S
V68     Er55    10.0   1_556     S
V69     Er63    10.0   1_545     S
V69     Er50    10.0   1_655     S
V69     Er49    10.0   1_655     S
V70     Er64    10.0   1_545     S
V70     Er49    10.0   1_656     S
V70     Er50    10.0   1_655     S
V71     Er52    10.0   1_655     S
V71     Er51    10.0   1_655     S
V72     Er51    10.0   1_656     S
V72     Er52    10.0   1_655     S
V73     Er61    10.0   1_455     S
V74     Er62    10.0   1_455     S
V74     Er51    10.0   1_556     S
V75     Er63    10.0   1_455     S
V75     Er50    10.0   1_565     S
V75     Er49    10.0   1_565     S
V76     Er64    10.0   1_455     S
V76     Er49    10.0   1_566     S
V76     Er50    10.0   1_565     S
V78     Er55    10.0   1_556     S
V79     Er54    10.0   1_565     S
V79     Er53    10.0   1_565     S
V80     Er53    10.0   1_566     S
V80     Er54    10.0   1_565     S
V81     Er59    10.0   1_545     S
V82     Er60    10.0   1_545     S
V82     Er53    10.0   1_556     S
V82     Er49    10.0   1_556     S
V84     Er55    10.0   1_556     S
V84     Er51    10.0   1_556     S
V85     Er63    10.0   1_545     S
V85     Er50    10.0   1_655     S
V86     Er64    10.0   1_545     S
V86     Er49    10.0   1_656     S
V86     Er53    10.0   1_556     S
V87     Er52    10.0   1_655     S
V88     Er51    10.0   1_656     S
V88     Er55    10.0   1_556     S
V89     Er61    10.0   1_455     S
V90     Er62    10.0   1_455     S
V90     Er51    10.0   1_556     S
V90     Er49    10.0   1_556     S
V91     Er63    10.0   1_455     S
V91     Er50    10.0   1_565     S
V92     Er64    10.0   1_455     S
V92     Er49    10.0   1_566     S
V92     Er51    10.0   1_556     S
V94     Er55    10.0   1_556     S
V94     Er53    10.0   1_556     S
V95     Er54    10.0   1_565     S
V96     Er53    10.0   1_566     S
V96     Er55    10.0   1_556     S
V97     Er58    10.0   1_554     S
V99     Er60    10.0   1_554     S
V99     Er53    10.0   1_565     S
V100     Er54    10.0   1_565     S
V101     Er62    10.0   1_554     S
V101     Er51    10.0   1_655     S
V101     Er49    10.0   1_655     S
V102     Er52    10.0   1_655     S
V102     Er50    10.0   1_655     S
V103     Er64    10.0   1_554     S
V103     Er49    10.0   1_665     S
V103     Er51    10.0   1_655     S
V104     Er50    10.0   1_665     S
V104     Er52    10.0   1_655     S
V105     Er58    10.0   1_554     S
V107     Er60    10.0   1_554     S
V107     Er53    10.0   1_565     S
V107     Er49    10.0   1_565     S
V108     Er54    10.0   1_565     S
V108     Er50    10.0   1_565     S
V109     Er62    10.0   1_554     S
V109     Er51    10.0   1_655     S
V110     Er52    10.0   1_655     S
V111     Er64    10.0   1_554     S
V111     Er49    10.0   1_665     S
V111     Er53    10.0   1_565     S
V112     Er50    10.0   1_665     S
V112     Er54    10.0   1_565     S
