data_twt
_audit_creation_date              2019-12-31
_audit_creation_method            'Pymatgen'
_symmetry_space_group_name_H-M    'P1'
_symmetry_Int_Tables_number       1
loop_
_symmetry_equiv_pos_as_xyz
  x,y,z
_cell_length_a                    24.7516
_cell_length_b                    24.7516
_cell_length_c                    40.5156
_cell_angle_alpha                 90.0
_cell_angle_beta                 90.0
_cell_angle_gamma                 120.0
loop_
_atom_site_label
_atom_site_type_symbol
_atom_site_fract_x
_atom_site_fract_y
_atom_site_fract_z
V1     V     0.702   0.702   0.1667
V2     V     0.702   0.702   0.6667
V3     V     0.702   0.0   0.0
V4     V     0.702   0.0   0.5
V5     V     1.0   0.298   0.3333
V6     V     1.0   0.298   0.8333
V7     V     0.298   0.298   0.1667
V8     V     0.298   0.298   0.6667
V9     V     0.298   0.0   0.0
V10     V     0.298   0.0   0.5
V11     V     0.0   0.702   0.3333
V12     V     0.0   0.702   0.8333
loop_
_geom_bond_atom_site_label_1
_geom_bond_atom_site_label_2
_geom_bond_distance
_geom_bond_site_symmetry_2
_ccdc_geom_bond_type
V1     V3    10.0   1_565     S
V1     V11    10.0   1_655     S
V1     V7    10.0   .     S
V2     V4    10.0   1_565     S
V2     V12    10.0   1_655     S
V2     V8    10.0   .     S
V3     V6    10.0   1_554     S
V3     V1    10.0   1_545     S
V3     V9    10.0   .     S
V4     V5    10.0   .     S
V4     V2    10.0   1_545     S
V4     V10    10.0   .     S
V5     V7    10.0   1_655     S
V5     V11    10.0   1_655     S
V6     V3    10.0   1_556     S
V6     V8    10.0   1_655     S
V6     V12    10.0   1_655     S
V7     V5    10.0   1_455     S
V7     V9    10.0   .     S
V8     V6    10.0   1_455     S
V8     V10    10.0   .     S
V9     V12    10.0   1_544     S
V10     V11    10.0   1_545     S
V11     V1    10.0   1_455     S
V11     V10    10.0   1_565     S
V11     V5    10.0   1_455     S
V12     V2    10.0   1_455     S
V12     V9    10.0   1_566     S
V12     V6    10.0   1_455     S
