data_uke
_audit_creation_date              2019-12-31
_audit_creation_method            'Pymatgen'
_symmetry_space_group_name_H-M    'P1'
_symmetry_Int_Tables_number       1
loop_
_symmetry_equiv_pos_as_xyz
  x,y,z
_cell_length_a                    37.9984
_cell_length_b                    68.0743
_cell_length_c                    32.7956
_cell_angle_alpha                 90.0
_cell_angle_beta                 90.0
_cell_angle_gamma                 90.0
loop_
_atom_site_label
_atom_site_type_symbol
_atom_site_fract_x
_atom_site_fract_y
_atom_site_fract_z
V1     V     0.2136   0.447   0.7256
V2     V     0.7136   0.447   0.7256
V3     V     0.0364   0.553   0.7744
V4     V     0.5364   0.553   0.7744
V5     V     0.4114   0.447   0.5244
V6     V     0.9114   0.447   0.5244
V7     V     0.0886   0.553   0.4756
V8     V     0.5886   0.553   0.4756
V9     V     0.4636   0.447   0.2256
V10     V     0.9636   0.447   0.2256
V11     V     0.2864   0.553   0.2744
V12     V     0.7864   0.553   0.2744
V13     V     0.3386   0.553   0.9756
V14     V     0.8386   0.553   0.9756
V15     V     0.1614   0.447   0.0244
V16     V     0.6614   0.447   0.0244
V17     V     0.4636   0.303   0.5244
V18     V     0.9636   0.303   0.5244
V19     V     0.2864   0.197   0.4756
V20     V     0.7864   0.197   0.4756
V21     V     0.0364   0.197   0.9756
V22     V     0.5364   0.197   0.9756
V23     V     0.2136   0.303   0.0244
V24     V     0.7136   0.303   0.0244
V25     V     0.0886   0.197   0.2744
V26     V     0.5886   0.197   0.2744
V27     V     0.4114   0.303   0.2256
V28     V     0.9114   0.303   0.2256
V29     V     0.1614   0.303   0.7256
V30     V     0.6614   0.303   0.7256
V31     V     0.3386   0.197   0.7744
V32     V     0.8386   0.197   0.7744
V33     V     0.1614   0.947   0.5244
V34     V     0.6614   0.947   0.5244
V35     V     0.3386   0.053   0.4756
V36     V     0.8386   0.053   0.4756
V37     V     0.0886   0.053   0.9756
V38     V     0.5886   0.053   0.9756
V39     V     0.4114   0.947   0.0244
V40     V     0.9114   0.947   0.0244
V41     V     0.0364   0.053   0.2744
V42     V     0.5364   0.053   0.2744
V43     V     0.2136   0.947   0.2256
V44     V     0.7136   0.947   0.2256
V45     V     0.4636   0.947   0.7256
V46     V     0.9636   0.947   0.7256
V47     V     0.2864   0.053   0.7744
V48     V     0.7864   0.053   0.7744
V49     V     0.4114   0.803   0.7256
V50     V     0.9114   0.803   0.7256
V51     V     0.0886   0.697   0.7744
V52     V     0.5886   0.697   0.7744
V53     V     0.4636   0.803   0.0244
V54     V     0.9636   0.803   0.0244
V55     V     0.2864   0.697   0.9756
V56     V     0.7864   0.697   0.9756
V57     V     0.2136   0.803   0.5244
V58     V     0.7136   0.803   0.5244
V59     V     0.0364   0.697   0.4756
V60     V     0.5364   0.697   0.4756
V61     V     0.3386   0.697   0.2744
V62     V     0.8386   0.697   0.2744
V63     V     0.1614   0.803   0.2256
V64     V     0.6614   0.803   0.2256
loop_
_geom_bond_atom_site_label_1
_geom_bond_atom_site_label_2
_geom_bond_distance
_geom_bond_site_symmetry_2
_ccdc_geom_bond_type
V1     V3    10.0   .     S
V1     V5    10.0   .     S
V1     V15    10.0   1_556     S
V1     V29    10.0   .     S
V2     V4    10.0   .     S
V2     V6    10.0   .     S
V2     V16    10.0   1_556     S
V2     V30    10.0   .     S
V3     V14    10.0   1_455     S
V3     V7    10.0   .     S
V3     V51    10.0   .     S
V4     V13    10.0   .     S
V4     V8    10.0   .     S
V4     V52    10.0   .     S
V5     V8    10.0   .     S
V5     V9    10.0   .     S
V5     V17    10.0   .     S
V6     V7    10.0   1_655     S
V6     V10    10.0   .     S
V6     V18    10.0   .     S
V7     V6    10.0   1_455     S
V7     V11    10.0   .     S
V7     V59    10.0   .     S
V8     V12    10.0   .     S
V8     V60    10.0   .     S
V9     V11    10.0   .     S
V9     V16    10.0   .     S
V9     V27    10.0   .     S
V10     V12    10.0   .     S
V10     V15    10.0   1_655     S
V10     V28    10.0   .     S
V11     V13    10.0   1_554     S
V11     V61    10.0   .     S
V12     V14    10.0   1_554     S
V12     V62    10.0   .     S
V13     V15    10.0   1_556     S
V13     V11    10.0   1_556     S
V13     V55    10.0   .     S
V14     V3    10.0   1_655     S
V14     V16    10.0   1_556     S
V14     V12    10.0   1_556     S
V14     V56    10.0   .     S
V15     V13    10.0   1_554     S
V15     V10    10.0   1_455     S
V15     V1    10.0   1_554     S
V15     V23    10.0   .     S
V16     V14    10.0   1_554     S
V16     V2    10.0   1_554     S
V16     V24    10.0   .     S
V17     V19    10.0   .     S
V17     V30    10.0   .     S
V17     V27    10.0   .     S
V18     V20    10.0   .     S
V18     V29    10.0   1_655     S
V18     V28    10.0   .     S
V19     V25    10.0   .     S
V19     V31    10.0   .     S
V19     V35    10.0   .     S
V20     V26    10.0   .     S
V20     V32    10.0   .     S
V20     V36    10.0   .     S
V21     V23    10.0   1_556     S
V21     V32    10.0   1_455     S
V21     V25    10.0   1_556     S
V21     V37    10.0   .     S
V22     V24    10.0   1_556     S
V22     V31    10.0   .     S
V22     V26    10.0   1_556     S
V22     V38    10.0   .     S
V23     V21    10.0   1_554     S
V23     V27    10.0   .     S
V23     V29    10.0   1_554     S
V24     V22    10.0   1_554     S
V24     V28    10.0   .     S
V24     V30    10.0   1_554     S
V25     V28    10.0   1_455     S
V25     V21    10.0   1_554     S
V25     V41    10.0   .     S
V26     V27    10.0   .     S
V26     V22    10.0   1_554     S
V26     V42    10.0   .     S
V28     V25    10.0   1_655     S
V29     V31    10.0   .     S
V29     V18    10.0   1_455     S
V29     V23    10.0   1_556     S
V30     V32    10.0   .     S
V30     V24    10.0   1_556     S
V31     V47    10.0   .     S
V32     V21    10.0   1_655     S
V32     V48    10.0   .     S
V33     V35    10.0   1_565     S
V33     V46    10.0   1_455     S
V33     V43    10.0   .     S
V33     V57    10.0   .     S
V34     V36    10.0   1_565     S
V34     V45    10.0   .     S
V34     V44    10.0   .     S
V34     V58    10.0   .     S
V35     V33    10.0   1_545     S
V35     V42    10.0   .     S
V35     V47    10.0   .     S
V36     V34    10.0   1_545     S
V36     V41    10.0   1_655     S
V36     V48    10.0   .     S
V37     V40    10.0   1_446     S
V37     V47    10.0   .     S
V37     V41    10.0   1_556     S
V38     V39    10.0   1_546     S
V38     V48    10.0   .     S
V38     V42    10.0   1_556     S
V39     V38    10.0   1_564     S
V39     V43    10.0   .     S
V39     V45    10.0   1_554     S
V39     V53    10.0   .     S
V40     V37    10.0   1_664     S
V40     V44    10.0   .     S
V40     V46    10.0   1_554     S
V40     V54    10.0   .     S
V41     V43    10.0   1_545     S
V41     V36    10.0   1_455     S
V41     V37    10.0   1_554     S
V42     V44    10.0   1_545     S
V42     V38    10.0   1_554     S
V43     V41    10.0   1_565     S
V43     V63    10.0   .     S
V44     V42    10.0   1_565     S
V44     V64    10.0   .     S
V45     V47    10.0   1_565     S
V45     V39    10.0   1_556     S
V45     V49    10.0   .     S
V46     V48    10.0   1_565     S
V46     V33    10.0   1_655     S
V46     V40    10.0   1_556     S
V46     V50    10.0   .     S
V47     V45    10.0   1_545     S
V48     V46    10.0   1_545     S
V49     V52    10.0   .     S
V49     V57    10.0   .     S
V49     V53    10.0   1_556     S
V50     V51    10.0   1_655     S
V50     V58    10.0   .     S
V50     V54    10.0   1_556     S
V51     V50    10.0   1_455     S
V51     V55    10.0   .     S
V51     V59    10.0   .     S
V52     V56    10.0   .     S
V52     V60    10.0   .     S
V53     V55    10.0   1_554     S
V53     V64    10.0   .     S
V53     V49    10.0   1_554     S
V54     V56    10.0   1_554     S
V54     V63    10.0   1_655     S
V54     V50    10.0   1_554     S
V55     V53    10.0   1_556     S
V55     V61    10.0   1_556     S
V56     V54    10.0   1_556     S
V56     V62    10.0   1_556     S
V57     V59    10.0   .     S
V57     V63    10.0   .     S
V58     V60    10.0   .     S
V58     V64    10.0   .     S
V59     V62    10.0   1_455     S
V60     V61    10.0   .     S
V61     V63    10.0   .     S
V61     V55    10.0   1_554     S
V62     V64    10.0   .     S
V62     V59    10.0   1_655     S
V62     V56    10.0   1_554     S
V63     V54    10.0   1_455     S
