data_ukg
_audit_creation_date              2019-12-31
_audit_creation_method            'Pymatgen'
_symmetry_space_group_name_H-M    'P1'
_symmetry_Int_Tables_number       1
loop_
_symmetry_equiv_pos_as_xyz
  x,y,z
_cell_length_a                    40.0428
_cell_length_b                    40.0428
_cell_length_c                    27.4002
_cell_angle_alpha                 90.0
_cell_angle_beta                 90.0
_cell_angle_gamma                 90.0
loop_
_atom_site_label
_atom_site_type_symbol
_atom_site_fract_x
_atom_site_fract_y
_atom_site_fract_z
V1     V     0.4898   0.174   0.856
V2     V     0.4898   0.674   0.856
V3     V     0.9899   0.174   0.856
V4     V     0.9899   0.674   0.856
V5     V     0.2602   0.076   0.856
V6     V     0.2602   0.576   0.856
V7     V     0.7602   0.076   0.856
V8     V     0.7602   0.576   0.856
V9     V     0.2398   0.424   0.144
V10     V     0.2398   0.924   0.144
V11     V     0.7398   0.424   0.144
V12     V     0.7398   0.924   0.144
V13     V     0.0102   0.326   0.144
V14     V     0.0102   0.826   0.144
V15     V     0.5102   0.326   0.144
V16     V     0.5102   0.826   0.144
V17     V     0.174   0.2602   0.644
V18     V     0.174   0.7602   0.644
V19     V     0.674   0.2602   0.644
V20     V     0.674   0.7602   0.644
V21     V     0.076   0.4898   0.644
V22     V     0.076   0.9899   0.644
V23     V     0.576   0.4898   0.644
V24     V     0.576   0.9899   0.644
V25     V     0.424   0.0102   0.356
V26     V     0.424   0.5102   0.356
V27     V     0.924   0.0102   0.356
V28     V     0.924   0.5102   0.356
V29     V     0.326   0.2398   0.356
V30     V     0.326   0.7398   0.356
V31     V     0.826   0.2398   0.356
V32     V     0.826   0.7398   0.356
loop_
_geom_bond_atom_site_label_1
_geom_bond_atom_site_label_2
_geom_bond_distance
_geom_bond_site_symmetry_2
_ccdc_geom_bond_type
V1     V5    10.0   .     S
V1     V15    10.0   1_556     S
V1     V24    10.0   1_545     S
V1     V19    10.0   .     S
V2     V6    10.0   .     S
V2     V16    10.0   1_556     S
V2     V23    10.0   .     S
V2     V20    10.0   .     S
V3     V7    10.0   .     S
V3     V13    10.0   1_656     S
V3     V22    10.0   1_645     S
V3     V17    10.0   1_655     S
V4     V8    10.0   .     S
V4     V14    10.0   1_656     S
V4     V21    10.0   1_655     S
V4     V18    10.0   1_655     S
V5     V10    10.0   1_546     S
V5     V17    10.0   .     S
V5     V22    10.0   1_545     S
V6     V9    10.0   1_556     S
V6     V18    10.0   .     S
V6     V21    10.0   .     S
V7     V12    10.0   1_546     S
V7     V19    10.0   .     S
V7     V24    10.0   1_545     S
V8     V11    10.0   1_556     S
V8     V20    10.0   .     S
V8     V23    10.0   .     S
V9     V13    10.0   .     S
V9     V6    10.0   1_554     S
V9     V29    10.0   .     S
V9     V26    10.0   .     S
V10     V14    10.0   .     S
V10     V5    10.0   1_564     S
V10     V30    10.0   .     S
V10     V25    10.0   1_565     S
V11     V15    10.0   .     S
V11     V8    10.0   1_554     S
V11     V31    10.0   .     S
V11     V28    10.0   .     S
V12     V16    10.0   .     S
V12     V7    10.0   1_564     S
V12     V32    10.0   .     S
V12     V27    10.0   1_565     S
V13     V3    10.0   1_454     S
V13     V28    10.0   1_455     S
V13     V31    10.0   1_455     S
V14     V4    10.0   1_454     S
V14     V27    10.0   1_465     S
V14     V32    10.0   1_455     S
V15     V1    10.0   1_554     S
V15     V26    10.0   .     S
V15     V29    10.0   .     S
V16     V2    10.0   1_554     S
V16     V25    10.0   1_565     S
V16     V30    10.0   .     S
V17     V21    10.0   .     S
V17     V29    10.0   .     S
V17     V3    10.0   1_455     S
V18     V22    10.0   .     S
V18     V30    10.0   .     S
V18     V4    10.0   1_455     S
V19     V23    10.0   .     S
V19     V31    10.0   .     S
V20     V24    10.0   .     S
V20     V32    10.0   .     S
V21     V4    10.0   1_455     S
V21     V28    10.0   1_455     S
V22     V3    10.0   1_465     S
V22     V27    10.0   1_465     S
V22     V5    10.0   1_565     S
V23     V26    10.0   .     S
V24     V1    10.0   1_565     S
V24     V25    10.0   1_565     S
V24     V7    10.0   1_565     S
V25     V16    10.0   1_545     S
V25     V29    10.0   .     S
V25     V24    10.0   1_545     S
V25     V10    10.0   1_545     S
V26     V30    10.0   .     S
V27     V14    10.0   1_645     S
V27     V31    10.0   .     S
V27     V22    10.0   1_645     S
V27     V12    10.0   1_545     S
V28     V13    10.0   1_655     S
V28     V32    10.0   .     S
V28     V21    10.0   1_655     S
V31     V13    10.0   1_655     S
V32     V14    10.0   1_655     S
