data_uki
_audit_creation_date              2019-12-31
_audit_creation_method            'Pymatgen'
_symmetry_space_group_name_H-M    'P1'
_symmetry_Int_Tables_number       1
loop_
_symmetry_equiv_pos_as_xyz
  x,y,z
_cell_length_a                    40.3026
_cell_length_b                    40.3026
_cell_length_c                    54.2756
_cell_angle_alpha                 90.0
_cell_angle_beta                 90.0
_cell_angle_gamma                 90.0
loop_
_atom_site_label
_atom_site_type_symbol
_atom_site_fract_x
_atom_site_fract_y
_atom_site_fract_z
V1     V     0.4509   0.3861   0.3021
V2     V     0.4509   0.8861   0.3021
V3     V     0.9509   0.3861   0.3021
V4     V     0.9509   0.8861   0.3021
V5     V     0.0491   0.1139   0.3021
V6     V     0.0491   0.6139   0.3021
V7     V     0.5491   0.1139   0.3021
V8     V     0.5491   0.6139   0.3021
V9     V     0.2009   0.1139   0.4479
V10     V     0.2009   0.6139   0.4479
V11     V     0.7009   0.1139   0.4479
V12     V     0.7009   0.6139   0.4479
V13     V     0.2991   0.3861   0.4479
V14     V     0.2991   0.8861   0.4479
V15     V     0.7991   0.3861   0.4479
V16     V     0.7991   0.8861   0.4479
V17     V     0.1139   0.4509   0.6979
V18     V     0.1139   0.9509   0.6979
V19     V     0.6139   0.4509   0.6979
V20     V     0.6139   0.9509   0.6979
V21     V     0.3861   0.0491   0.6979
V22     V     0.3861   0.5491   0.6979
V23     V     0.8861   0.0491   0.6979
V24     V     0.8861   0.5491   0.6979
V25     V     0.3861   0.2009   0.5521
V26     V     0.3861   0.7009   0.5521
V27     V     0.8861   0.2009   0.5521
V28     V     0.8861   0.7009   0.5521
V29     V     0.1139   0.2991   0.5521
V30     V     0.1139   0.7991   0.5521
V31     V     0.6139   0.2991   0.5521
V32     V     0.6139   0.7991   0.5521
V33     V     0.4509   0.3639   0.9479
V34     V     0.4509   0.8639   0.9479
V35     V     0.9509   0.3639   0.9479
V36     V     0.9509   0.8639   0.9479
V37     V     0.0491   0.1361   0.9479
V38     V     0.0491   0.6361   0.9479
V39     V     0.5491   0.1361   0.9479
V40     V     0.5491   0.6361   0.9479
V41     V     0.2991   0.3639   0.8021
V42     V     0.2991   0.8639   0.8021
V43     V     0.7991   0.3639   0.8021
V44     V     0.7991   0.8639   0.8021
V45     V     0.2009   0.1361   0.8021
V46     V     0.2009   0.6361   0.8021
V47     V     0.7009   0.1361   0.8021
V48     V     0.7009   0.6361   0.8021
V49     V     0.3639   0.0491   0.0521
V50     V     0.3639   0.5491   0.0521
V51     V     0.8639   0.0491   0.0521
V52     V     0.8639   0.5491   0.0521
V53     V     0.1361   0.4509   0.0521
V54     V     0.1361   0.9509   0.0521
V55     V     0.6361   0.4509   0.0521
V56     V     0.6361   0.9509   0.0521
V57     V     0.3639   0.2009   0.1979
V58     V     0.3639   0.7009   0.1979
V59     V     0.8639   0.2009   0.1979
V60     V     0.8639   0.7009   0.1979
V61     V     0.1361   0.2991   0.1979
V62     V     0.1361   0.7991   0.1979
V63     V     0.6361   0.2991   0.1979
V64     V     0.6361   0.7991   0.1979
loop_
_geom_bond_atom_site_label_1
_geom_bond_atom_site_label_2
_geom_bond_distance
_geom_bond_site_symmetry_2
_ccdc_geom_bond_type
V1     V8    10.0   .     S
V1     V13    10.0   .     S
V1     V57    10.0   .     S
V1     V63    10.0   .     S
V2     V7    10.0   1_565     S
V2     V14    10.0   .     S
V2     V58    10.0   .     S
V2     V64    10.0   .     S
V3     V6    10.0   1_655     S
V3     V15    10.0   .     S
V3     V59    10.0   .     S
V3     V61    10.0   1_655     S
V4     V5    10.0   1_665     S
V4     V16    10.0   .     S
V4     V60    10.0   .     S
V4     V62    10.0   1_655     S
V5     V4    10.0   1_445     S
V5     V9    10.0   .     S
V5     V59    10.0   1_455     S
V5     V61    10.0   .     S
V6     V3    10.0   1_455     S
V6     V10    10.0   .     S
V6     V60    10.0   1_455     S
V6     V62    10.0   .     S
V7     V2    10.0   1_545     S
V7     V11    10.0   .     S
V7     V57    10.0   .     S
V7     V63    10.0   .     S
V8     V12    10.0   .     S
V8     V58    10.0   .     S
V8     V64    10.0   .     S
V9     V14    10.0   1_545     S
V9     V25    10.0   .     S
V9     V29    10.0   .     S
V10     V13    10.0   .     S
V10     V26    10.0   .     S
V10     V30    10.0   .     S
V11     V16    10.0   1_545     S
V11     V27    10.0   .     S
V11     V31    10.0   .     S
V12     V15    10.0   .     S
V12     V28    10.0   .     S
V12     V32    10.0   .     S
V13     V29    10.0   .     S
V13     V25    10.0   .     S
V14     V9    10.0   1_565     S
V14     V30    10.0   .     S
V14     V26    10.0   .     S
V15     V31    10.0   .     S
V15     V27    10.0   .     S
V16     V11    10.0   1_565     S
V16     V32    10.0   .     S
V16     V28    10.0   .     S
V17     V24    10.0   1_455     S
V17     V29    10.0   .     S
V17     V41    10.0   .     S
V17     V46    10.0   .     S
V18     V23    10.0   1_465     S
V18     V30    10.0   .     S
V18     V42    10.0   .     S
V18     V45    10.0   1_565     S
V19     V22    10.0   .     S
V19     V31    10.0   .     S
V19     V43    10.0   .     S
V19     V48    10.0   .     S
V20     V21    10.0   1_565     S
V20     V32    10.0   .     S
V20     V44    10.0   .     S
V20     V47    10.0   1_565     S
V21     V20    10.0   1_545     S
V21     V25    10.0   .     S
V21     V42    10.0   1_545     S
V21     V45    10.0   .     S
V22     V26    10.0   .     S
V22     V41    10.0   .     S
V22     V46    10.0   .     S
V23     V18    10.0   1_645     S
V23     V27    10.0   .     S
V23     V44    10.0   1_545     S
V23     V47    10.0   .     S
V24     V17    10.0   1_655     S
V24     V28    10.0   .     S
V24     V43    10.0   .     S
V24     V48    10.0   .     S
V25     V31    10.0   .     S
V26     V32    10.0   .     S
V27     V29    10.0   1_655     S
V28     V30    10.0   1_655     S
V29     V27    10.0   1_455     S
V30     V28    10.0   1_455     S
V33     V39    10.0   .     S
V33     V41    10.0   .     S
V33     V55    10.0   1_556     S
V33     V50    10.0   1_556     S
V34     V40    10.0   .     S
V34     V42    10.0   .     S
V34     V56    10.0   1_556     S
V34     V49    10.0   1_566     S
V35     V37    10.0   1_655     S
V35     V43    10.0   .     S
V35     V53    10.0   1_656     S
V35     V52    10.0   1_556     S
V36     V38    10.0   1_655     S
V36     V44    10.0   .     S
V36     V54    10.0   1_656     S
V36     V51    10.0   1_566     S
V37     V35    10.0   1_455     S
V37     V45    10.0   .     S
V37     V54    10.0   1_546     S
V37     V51    10.0   1_456     S
V38     V36    10.0   1_455     S
V38     V46    10.0   .     S
V38     V53    10.0   1_556     S
V38     V52    10.0   1_456     S
V39     V47    10.0   .     S
V39     V56    10.0   1_546     S
V39     V49    10.0   1_556     S
V40     V48    10.0   .     S
V40     V55    10.0   1_556     S
V40     V50    10.0   1_556     S
V41     V45    10.0   .     S
V42     V46    10.0   .     S
V42     V21    10.0   1_565     S
V43     V47    10.0   .     S
V44     V48    10.0   .     S
V44     V23    10.0   1_565     S
V45     V18    10.0   1_545     S
V47     V20    10.0   1_545     S
V49     V54    10.0   1_545     S
V49     V57    10.0   .     S
V49     V34    10.0   1_544     S
V49     V39    10.0   1_554     S
V50     V53    10.0   .     S
V50     V58    10.0   .     S
V50     V33    10.0   1_554     S
V50     V40    10.0   1_554     S
V51     V56    10.0   1_545     S
V51     V59    10.0   .     S
V51     V36    10.0   1_544     S
V51     V37    10.0   1_654     S
V52     V55    10.0   .     S
V52     V60    10.0   .     S
V52     V35    10.0   1_554     S
V52     V38    10.0   1_654     S
V53     V61    10.0   .     S
V53     V38    10.0   1_554     S
V53     V35    10.0   1_454     S
V54     V49    10.0   1_565     S
V54     V62    10.0   .     S
V54     V37    10.0   1_564     S
V54     V36    10.0   1_454     S
V55     V63    10.0   .     S
V55     V40    10.0   1_554     S
V55     V33    10.0   1_554     S
V56     V51    10.0   1_565     S
V56     V64    10.0   .     S
V56     V39    10.0   1_564     S
V56     V34    10.0   1_554     S
V57     V61    10.0   .     S
V58     V62    10.0   .     S
V59     V5    10.0   1_655     S
V59     V63    10.0   .     S
V60     V6    10.0   1_655     S
V60     V64    10.0   .     S
V61     V3    10.0   1_455     S
V62     V4    10.0   1_455     S
