data_ukj
_audit_creation_date              2019-12-31
_audit_creation_method            'Pymatgen'
_symmetry_space_group_name_H-M    'P1'
_symmetry_Int_Tables_number       1
loop_
_symmetry_equiv_pos_as_xyz
  x,y,z
_cell_length_a                    39.6966
_cell_length_b                    51.7942
_cell_length_c                    36.7418
_cell_angle_alpha                 90.0
_cell_angle_beta                 90.0
_cell_angle_gamma                 90.0
loop_
_atom_site_label
_atom_site_type_symbol
_atom_site_fract_x
_atom_site_fract_y
_atom_site_fract_z
V1     V     0.4557   0.1762   0.5097
V2     V     0.9557   0.1762   0.5097
V3     V     0.1693   0.0738   0.5097
V4     V     0.6693   0.0738   0.5097
V5     V     0.4193   0.1762   0.2404
V6     V     0.9193   0.1762   0.2404
V7     V     0.2057   0.0738   0.2404
V8     V     0.7057   0.0738   0.2404
V9     V     0.2057   0.1762   0.0096
V10     V     0.7057   0.1762   0.0096
V11     V     0.4193   0.0738   0.0096
V12     V     0.9193   0.0738   0.0096
V13     V     0.4557   0.0738   0.7404
V14     V     0.9557   0.0738   0.7404
V15     V     0.1693   0.1762   0.7404
V16     V     0.6693   0.1762   0.7404
V17     V     0.0807   0.9262   0.9904
V18     V     0.5807   0.9262   0.9904
V19     V     0.2943   0.8238   0.9904
V20     V     0.7943   0.8238   0.9904
V21     V     0.0443   0.9262   0.2596
V22     V     0.5443   0.9262   0.2596
V23     V     0.3307   0.8238   0.2596
V24     V     0.8307   0.8238   0.2596
V25     V     0.3307   0.9262   0.4904
V26     V     0.8307   0.9262   0.4904
V27     V     0.0443   0.8238   0.4904
V28     V     0.5443   0.8238   0.4904
V29     V     0.2943   0.9262   0.7597
V30     V     0.7943   0.9262   0.7597
V31     V     0.0807   0.8238   0.7597
V32     V     0.5807   0.8238   0.7597
V33     V     0.0443   0.3238   0.9904
V34     V     0.5443   0.3238   0.9904
V35     V     0.3307   0.4262   0.9904
V36     V     0.8307   0.4262   0.9904
V37     V     0.0807   0.3238   0.2596
V38     V     0.5807   0.3238   0.2596
V39     V     0.2943   0.4262   0.2596
V40     V     0.7943   0.4262   0.2596
V41     V     0.0807   0.4262   0.4904
V42     V     0.5807   0.4262   0.4904
V43     V     0.2943   0.3238   0.4904
V44     V     0.7943   0.3238   0.4904
V45     V     0.0443   0.4262   0.7597
V46     V     0.5443   0.4262   0.7597
V47     V     0.3307   0.3238   0.7597
V48     V     0.8307   0.3238   0.7597
V49     V     0.1693   0.5738   0.0096
V50     V     0.6693   0.5738   0.0096
V51     V     0.4557   0.6762   0.0096
V52     V     0.9557   0.6762   0.0096
V53     V     0.2057   0.5738   0.7404
V54     V     0.7057   0.5738   0.7404
V55     V     0.4193   0.6762   0.7404
V56     V     0.9193   0.6762   0.7404
V57     V     0.4193   0.5738   0.5097
V58     V     0.9193   0.5738   0.5097
V59     V     0.2057   0.6762   0.5097
V60     V     0.7057   0.6762   0.5097
V61     V     0.4557   0.5738   0.2404
V62     V     0.9557   0.5738   0.2404
V63     V     0.1693   0.6762   0.2404
V64     V     0.6693   0.6762   0.2404
loop_
_geom_bond_atom_site_label_1
_geom_bond_atom_site_label_2
_geom_bond_distance
_geom_bond_site_symmetry_2
_ccdc_geom_bond_type
V1     V4    10.0   .     S
V1     V5    10.0   .     S
V1     V13    10.0   .     S
V1     V43    10.0   .     S
V2     V3    10.0   1_655     S
V2     V6    10.0   .     S
V2     V14    10.0   .     S
V2     V44    10.0   .     S
V3     V2    10.0   1_455     S
V3     V7    10.0   .     S
V3     V15    10.0   .     S
V3     V25    10.0   1_545     S
V4     V8    10.0   .     S
V4     V16    10.0   .     S
V4     V26    10.0   1_545     S
V5     V7    10.0   .     S
V5     V11    10.0   .     S
V5     V38    10.0   .     S
V6     V8    10.0   .     S
V6     V12    10.0   .     S
V6     V37    10.0   1_655     S
V7     V9    10.0   .     S
V7     V21    10.0   1_545     S
V8     V10    10.0   .     S
V8     V22    10.0   1_545     S
V9     V11    10.0   .     S
V9     V15    10.0   1_554     S
V9     V33    10.0   1_554     S
V10     V12    10.0   .     S
V10     V16    10.0   1_554     S
V10     V34    10.0   1_554     S
V11     V13    10.0   1_554     S
V11     V18    10.0   1_544     S
V12     V14    10.0   1_554     S
V12     V17    10.0   1_644     S
V13     V16    10.0   .     S
V13     V11    10.0   1_556     S
V13     V29    10.0   1_545     S
V14     V15    10.0   1_655     S
V14     V12    10.0   1_556     S
V14     V30    10.0   1_545     S
V15     V14    10.0   1_455     S
V15     V9    10.0   1_556     S
V15     V47    10.0   .     S
V16     V10    10.0   1_556     S
V16     V48    10.0   .     S
V17     V19    10.0   .     S
V17     V21    10.0   1_556     S
V17     V31    10.0   .     S
V17     V12    10.0   1_466     S
V18     V20    10.0   .     S
V18     V22    10.0   1_556     S
V18     V32    10.0   .     S
V18     V11    10.0   1_566     S
V19     V23    10.0   1_556     S
V19     V29    10.0   .     S
V19     V51    10.0   1_556     S
V20     V24    10.0   1_556     S
V20     V30    10.0   .     S
V20     V52    10.0   1_556     S
V21     V24    10.0   1_455     S
V21     V17    10.0   1_554     S
V21     V27    10.0   .     S
V21     V7    10.0   1_565     S
V22     V23    10.0   .     S
V22     V18    10.0   1_554     S
V22     V28    10.0   .     S
V22     V8    10.0   1_565     S
V23     V19    10.0   1_554     S
V23     V25    10.0   .     S
V23     V63    10.0   .     S
V24     V21    10.0   1_655     S
V24     V20    10.0   1_554     S
V24     V26    10.0   .     S
V24     V64    10.0   .     S
V25     V28    10.0   .     S
V25     V29    10.0   .     S
V25     V3    10.0   1_565     S
V26     V27    10.0   1_655     S
V26     V30    10.0   .     S
V26     V4    10.0   1_565     S
V27     V26    10.0   1_455     S
V27     V31    10.0   .     S
V27     V59    10.0   .     S
V28     V32    10.0   .     S
V28     V60    10.0   .     S
V29     V31    10.0   .     S
V29     V13    10.0   1_565     S
V30     V32    10.0   .     S
V30     V14    10.0   1_565     S
V31     V56    10.0   1_455     S
V32     V55    10.0   .     S
V33     V36    10.0   1_455     S
V33     V37    10.0   1_556     S
V33     V45    10.0   .     S
V33     V9    10.0   1_556     S
V34     V35    10.0   .     S
V34     V38    10.0   1_556     S
V34     V46    10.0   .     S
V34     V10    10.0   1_556     S
V35     V39    10.0   1_556     S
V35     V47    10.0   .     S
V35     V49    10.0   1_556     S
V36     V33    10.0   1_655     S
V36     V40    10.0   1_556     S
V36     V48    10.0   .     S
V36     V50    10.0   1_556     S
V37     V39    10.0   .     S
V37     V33    10.0   1_554     S
V37     V41    10.0   .     S
V37     V6    10.0   1_455     S
V38     V40    10.0   .     S
V38     V34    10.0   1_554     S
V38     V42    10.0   .     S
V39     V35    10.0   1_554     S
V39     V43    10.0   .     S
V39     V61    10.0   .     S
V40     V36    10.0   1_554     S
V40     V44    10.0   .     S
V40     V62    10.0   .     S
V41     V43    10.0   .     S
V41     V45    10.0   .     S
V41     V58    10.0   1_455     S
V42     V44    10.0   .     S
V42     V46    10.0   .     S
V42     V57    10.0   .     S
V43     V47    10.0   .     S
V44     V48    10.0   .     S
V45     V48    10.0   1_455     S
V45     V53    10.0   .     S
V46     V47    10.0   .     S
V46     V54    10.0   .     S
V48     V45    10.0   1_655     S
V49     V52    10.0   1_455     S
V49     V53    10.0   1_554     S
V49     V63    10.0   .     S
V49     V35    10.0   1_554     S
V50     V51    10.0   .     S
V50     V54    10.0   1_554     S
V50     V64    10.0   .     S
V50     V36    10.0   1_554     S
V51     V19    10.0   1_554     S
V51     V55    10.0   1_554     S
V51     V61    10.0   .     S
V52     V20    10.0   1_554     S
V52     V49    10.0   1_655     S
V52     V56    10.0   1_554     S
V52     V62    10.0   .     S
V53     V55    10.0   .     S
V53     V49    10.0   1_556     S
V53     V59    10.0   .     S
V54     V56    10.0   .     S
V54     V50    10.0   1_556     S
V54     V60    10.0   .     S
V55     V51    10.0   1_556     S
V55     V57    10.0   .     S
V56     V31    10.0   1_655     S
V56     V52    10.0   1_556     S
V56     V58    10.0   .     S
V57     V59    10.0   .     S
V57     V61    10.0   .     S
V58     V60    10.0   .     S
V58     V62    10.0   .     S
V58     V41    10.0   1_655     S
V59     V63    10.0   .     S
V60     V64    10.0   .     S
V61     V64    10.0   .     S
V62     V63    10.0   1_655     S
V63     V62    10.0   1_455     S
