data_ukk
_audit_creation_date              2019-12-31
_audit_creation_method            'Pymatgen'
_symmetry_space_group_name_H-M    'P1'
_symmetry_Int_Tables_number       1
loop_
_symmetry_equiv_pos_as_xyz
  x,y,z
_cell_length_a                    33.2706
_cell_length_b                    33.2706
_cell_length_c                    33.9716
_cell_angle_alpha                 90.0
_cell_angle_beta                 90.0
_cell_angle_gamma                 90.0
loop_
_atom_site_label
_atom_site_type_symbol
_atom_site_fract_x
_atom_site_fract_y
_atom_site_fract_z
V1     V     0.3995   0.6501   0.4224
V2     V     0.3995   0.6501   0.9224
V3     V     0.3995   0.8499   0.2026
V4     V     0.3995   0.8499   0.7026
V5     V     0.1005   0.6501   0.4526
V6     V     0.1005   0.6501   0.9526
V7     V     0.1005   0.8499   0.1724
V8     V     0.1005   0.8499   0.6724
V9     V     0.3499   0.3995   0.0776
V10     V     0.3499   0.3995   0.5776
V11     V     0.1501   0.3995   0.2974
V12     V     0.1501   0.3995   0.7974
V13     V     0.3499   0.1005   0.0474
V14     V     0.3499   0.1005   0.5474
V15     V     0.1501   0.1005   0.3276
V16     V     0.1501   0.1005   0.8276
V17     V     0.6005   0.3499   0.4224
V18     V     0.6005   0.3499   0.9224
V19     V     0.6005   0.1501   0.2026
V20     V     0.6005   0.1501   0.7026
V21     V     0.8995   0.3499   0.4526
V22     V     0.8995   0.3499   0.9526
V23     V     0.8995   0.1501   0.1724
V24     V     0.8995   0.1501   0.6724
V25     V     0.6501   0.6005   0.0776
V26     V     0.6501   0.6005   0.5776
V27     V     0.8499   0.6005   0.2974
V28     V     0.8499   0.6005   0.7974
V29     V     0.6501   0.8995   0.0474
V30     V     0.6501   0.8995   0.5474
V31     V     0.8499   0.8995   0.3276
V32     V     0.8499   0.8995   0.8276
loop_
_geom_bond_atom_site_label_1
_geom_bond_atom_site_label_2
_geom_bond_distance
_geom_bond_site_symmetry_2
_ccdc_geom_bond_type
V1     V3    10.0   .     S
V1     V5    10.0   .     S
V1     V26    10.0   .     S
V1     V10    10.0   .     S
V2     V4    10.0   .     S
V2     V6    10.0   .     S
V2     V25    10.0   1_556     S
V2     V9    10.0   1_556     S
V3     V7    10.0   .     S
V3     V29    10.0   .     S
V3     V13    10.0   1_565     S
V4     V8    10.0   .     S
V4     V30    10.0   .     S
V4     V14    10.0   1_565     S
V5     V8    10.0   .     S
V5     V27    10.0   1_455     S
V5     V11    10.0   .     S
V6     V7    10.0   1_556     S
V6     V28    10.0   1_455     S
V6     V12    10.0   .     S
V7     V6    10.0   1_554     S
V7     V31    10.0   1_455     S
V7     V15    10.0   1_565     S
V8     V32    10.0   1_455     S
V8     V16    10.0   1_565     S
V9     V11    10.0   .     S
V9     V13    10.0   .     S
V9     V2    10.0   1_554     S
V9     V18    10.0   1_554     S
V10     V12    10.0   .     S
V10     V14    10.0   .     S
V10     V17    10.0   .     S
V11     V15    10.0   .     S
V11     V21    10.0   1_455     S
V12     V16    10.0   .     S
V12     V22    10.0   1_455     S
V13     V16    10.0   1_554     S
V13     V3    10.0   1_545     S
V13     V19    10.0   .     S
V14     V15    10.0   .     S
V14     V4    10.0   1_545     S
V14     V20    10.0   .     S
V15     V7    10.0   1_545     S
V15     V23    10.0   1_455     S
V16     V13    10.0   1_556     S
V16     V8    10.0   1_545     S
V16     V24    10.0   1_455     S
V17     V19    10.0   .     S
V17     V21    10.0   .     S
V17     V26    10.0   .     S
V18     V20    10.0   .     S
V18     V22    10.0   .     S
V18     V9    10.0   1_556     S
V18     V25    10.0   1_556     S
V19     V23    10.0   .     S
V19     V29    10.0   1_545     S
V20     V24    10.0   .     S
V20     V30    10.0   1_545     S
V21     V24    10.0   .     S
V21     V11    10.0   1_655     S
V21     V27    10.0   .     S
V22     V23    10.0   1_556     S
V22     V12    10.0   1_655     S
V22     V28    10.0   .     S
V23     V22    10.0   1_554     S
V23     V15    10.0   1_655     S
V23     V31    10.0   1_545     S
V24     V16    10.0   1_655     S
V24     V32    10.0   1_545     S
V25     V2    10.0   1_554     S
V25     V27    10.0   .     S
V25     V29    10.0   .     S
V25     V18    10.0   1_554     S
V26     V28    10.0   .     S
V26     V30    10.0   .     S
V27     V5    10.0   1_655     S
V27     V31    10.0   .     S
V28     V6    10.0   1_655     S
V28     V32    10.0   .     S
V29     V32    10.0   1_554     S
V29     V19    10.0   1_565     S
V30     V31    10.0   .     S
V30     V20    10.0   1_565     S
V31     V7    10.0   1_655     S
V31     V23    10.0   1_565     S
V32     V8    10.0   1_655     S
V32     V29    10.0   1_556     S
V32     V24    10.0   1_565     S
