data_ukl
_audit_creation_date              2019-12-31
_audit_creation_method            'Pymatgen'
_symmetry_space_group_name_H-M    'P1'
_symmetry_Int_Tables_number       1
loop_
_symmetry_equiv_pos_as_xyz
  x,y,z
_cell_length_a                    35.9736
_cell_length_b                    35.9736
_cell_length_c                    43.9837
_cell_angle_alpha                 90.0
_cell_angle_beta                 90.0
_cell_angle_gamma                 90.0
loop_
_atom_site_label
_atom_site_type_symbol
_atom_site_fract_x
_atom_site_fract_y
_atom_site_fract_z
V1     V     0.4103   0.4811   0.1825
V2     V     0.4103   0.9811   0.1825
V3     V     0.9103   0.4811   0.1825
V4     V     0.9103   0.9811   0.1825
V5     V     0.3397   0.2689   0.3175
V6     V     0.3397   0.7689   0.3175
V7     V     0.8397   0.2689   0.3175
V8     V     0.8397   0.7689   0.3175
V9     V     0.1603   0.4811   0.3175
V10     V     0.1603   0.9811   0.3175
V11     V     0.6603   0.4811   0.3175
V12     V     0.6603   0.9811   0.3175
V13     V     0.0897   0.2689   0.1825
V14     V     0.0897   0.7689   0.1825
V15     V     0.5897   0.2689   0.1825
V16     V     0.5897   0.7689   0.1825
V17     V     0.1061   0.2147   0.4325
V18     V     0.1061   0.7147   0.4325
V19     V     0.6061   0.2147   0.4325
V20     V     0.6061   0.7147   0.4325
V21     V     0.3939   0.2853   0.5675
V22     V     0.3939   0.7853   0.5675
V23     V     0.8939   0.2853   0.5675
V24     V     0.8939   0.7853   0.5675
V25     V     0.1603   0.2311   0.6825
V26     V     0.1603   0.7311   0.6825
V27     V     0.6603   0.2311   0.6825
V28     V     0.6603   0.7311   0.6825
V29     V     0.0897   0.0189   0.8175
V30     V     0.0897   0.5189   0.8175
V31     V     0.5897   0.0189   0.8175
V32     V     0.5897   0.5189   0.8175
V33     V     0.3939   0.0353   0.4325
V34     V     0.3939   0.5353   0.4325
V35     V     0.8939   0.0353   0.4325
V36     V     0.8939   0.5353   0.4325
V37     V     0.1061   0.4647   0.5675
V38     V     0.1061   0.9647   0.5675
V39     V     0.6061   0.4647   0.5675
V40     V     0.6061   0.9647   0.5675
V41     V     0.1439   0.0353   0.0675
V42     V     0.1439   0.5353   0.0675
V43     V     0.6439   0.0353   0.0675
V44     V     0.6439   0.5353   0.0675
V45     V     0.3561   0.4647   0.9325
V46     V     0.3561   0.9647   0.9325
V47     V     0.8561   0.4647   0.9325
V48     V     0.8561   0.9647   0.9325
V49     V     0.4103   0.2311   0.8175
V50     V     0.4103   0.7311   0.8175
V51     V     0.9103   0.2311   0.8175
V52     V     0.9103   0.7311   0.8175
V53     V     0.3397   0.0189   0.6825
V54     V     0.3397   0.5189   0.6825
V55     V     0.8397   0.0189   0.6825
V56     V     0.8397   0.5189   0.6825
V57     V     0.3561   0.2147   0.0675
V58     V     0.3561   0.7147   0.0675
V59     V     0.8561   0.2147   0.0675
V60     V     0.8561   0.7147   0.0675
V61     V     0.1439   0.2853   0.9325
V62     V     0.1439   0.7853   0.9325
V63     V     0.6439   0.2853   0.9325
V64     V     0.6439   0.7853   0.9325
loop_
_geom_bond_atom_site_label_1
_geom_bond_atom_site_label_2
_geom_bond_distance
_geom_bond_site_symmetry_2
_ccdc_geom_bond_type
V1     V5    10.0   .     S
V1     V58    10.0   .     S
V1     V44    10.0   .     S
V1     V15    10.0   .     S
V2     V6    10.0   .     S
V2     V57    10.0   1_565     S
V2     V43    10.0   1_565     S
V2     V16    10.0   .     S
V3     V7    10.0   .     S
V3     V60    10.0   .     S
V3     V42    10.0   1_655     S
V3     V13    10.0   1_655     S
V4     V8    10.0   .     S
V4     V59    10.0   1_565     S
V4     V41    10.0   1_665     S
V4     V14    10.0   1_655     S
V5     V33    10.0   .     S
V5     V17    10.0   .     S
V5     V9    10.0   .     S
V6     V34    10.0   .     S
V6     V18    10.0   .     S
V6     V10    10.0   .     S
V7     V35    10.0   .     S
V7     V19    10.0   .     S
V7     V11    10.0   .     S
V8     V36    10.0   .     S
V8     V20    10.0   .     S
V8     V12    10.0   .     S
V9     V13    10.0   .     S
V9     V34    10.0   .     S
V9     V18    10.0   .     S
V10     V14    10.0   .     S
V10     V33    10.0   1_565     S
V10     V17    10.0   1_565     S
V11     V15    10.0   .     S
V11     V36    10.0   .     S
V11     V20    10.0   .     S
V12     V16    10.0   .     S
V12     V35    10.0   1_565     S
V12     V19    10.0   1_565     S
V13     V59    10.0   1_455     S
V13     V41    10.0   .     S
V13     V3    10.0   1_455     S
V14     V60    10.0   1_455     S
V14     V42    10.0   .     S
V14     V4    10.0   1_455     S
V15     V57    10.0   .     S
V15     V43    10.0   .     S
V16     V58    10.0   .     S
V16     V44    10.0   .     S
V17     V23    10.0   1_455     S
V17     V10    10.0   1_545     S
V17     V35    10.0   1_455     S
V18     V24    10.0   1_455     S
V18     V36    10.0   1_455     S
V19     V21    10.0   .     S
V19     V12    10.0   1_545     S
V19     V33    10.0   .     S
V20     V22    10.0   .     S
V20     V34    10.0   .     S
V21     V54    10.0   .     S
V21     V25    10.0   .     S
V21     V39    10.0   .     S
V22     V53    10.0   1_565     S
V22     V26    10.0   .     S
V22     V40    10.0   .     S
V23     V17    10.0   1_655     S
V23     V56    10.0   .     S
V23     V27    10.0   .     S
V23     V37    10.0   1_655     S
V24     V18    10.0   1_655     S
V24     V55    10.0   1_565     S
V24     V28    10.0   .     S
V24     V38    10.0   1_655     S
V25     V29    10.0   .     S
V25     V37    10.0   .     S
V25     V53    10.0   .     S
V26     V30    10.0   .     S
V26     V38    10.0   .     S
V26     V54    10.0   .     S
V27     V31    10.0   .     S
V27     V39    10.0   .     S
V27     V55    10.0   .     S
V28     V32    10.0   .     S
V28     V40    10.0   .     S
V28     V56    10.0   .     S
V29     V62    10.0   1_545     S
V29     V48    10.0   1_445     S
V29     V51    10.0   1_455     S
V30     V61    10.0   .     S
V30     V47    10.0   1_455     S
V30     V52    10.0   1_455     S
V31     V64    10.0   1_545     S
V31     V46    10.0   1_545     S
V31     V49    10.0   .     S
V32     V63    10.0   .     S
V32     V45    10.0   .     S
V32     V50    10.0   .     S
V33     V40    10.0   1_545     S
V33     V10    10.0   1_545     S
V34     V39    10.0   .     S
V35     V38    10.0   1_645     S
V35     V12    10.0   1_545     S
V35     V17    10.0   1_655     S
V36     V37    10.0   1_655     S
V36     V18    10.0   1_655     S
V37     V36    10.0   1_455     S
V37     V54    10.0   .     S
V37     V23    10.0   1_455     S
V38     V35    10.0   1_465     S
V38     V53    10.0   1_565     S
V38     V24    10.0   1_455     S
V39     V56    10.0   .     S
V40     V33    10.0   1_565     S
V40     V55    10.0   1_565     S
V41     V46    10.0   1_544     S
V41     V4    10.0   1_445     S
V41     V57    10.0   .     S
V42     V45    10.0   1_554     S
V42     V3    10.0   1_455     S
V42     V58    10.0   .     S
V43     V48    10.0   1_544     S
V43     V2    10.0   1_545     S
V43     V59    10.0   .     S
V44     V47    10.0   1_554     S
V44     V60    10.0   .     S
V45     V42    10.0   1_556     S
V45     V49    10.0   .     S
V45     V61    10.0   .     S
V46     V41    10.0   1_566     S
V46     V50    10.0   .     S
V46     V31    10.0   1_565     S
V46     V62    10.0   .     S
V47     V44    10.0   1_556     S
V47     V51    10.0   .     S
V47     V30    10.0   1_655     S
V47     V63    10.0   .     S
V48     V43    10.0   1_566     S
V48     V52    10.0   .     S
V48     V29    10.0   1_665     S
V48     V64    10.0   .     S
V49     V53    10.0   .     S
V49     V63    10.0   .     S
V50     V54    10.0   .     S
V50     V64    10.0   .     S
V51     V55    10.0   .     S
V51     V61    10.0   1_655     S
V51     V29    10.0   1_655     S
V52     V56    10.0   .     S
V52     V62    10.0   1_655     S
V52     V30    10.0   1_655     S
V53     V22    10.0   1_545     S
V53     V38    10.0   1_545     S
V55     V24    10.0   1_545     S
V55     V40    10.0   1_545     S
V57     V61    10.0   1_554     S
V57     V2    10.0   1_545     S
V58     V62    10.0   1_554     S
V59     V13    10.0   1_655     S
V59     V63    10.0   1_554     S
V59     V4    10.0   1_545     S
V60     V14    10.0   1_655     S
V60     V64    10.0   1_554     S
V61     V51    10.0   1_455     S
V61     V57    10.0   1_556     S
V62     V52    10.0   1_455     S
V62     V58    10.0   1_556     S
V62     V29    10.0   1_565     S
V63     V59    10.0   1_556     S
V64     V60    10.0   1_556     S
V64     V31    10.0   1_565     S
