data_ukm
_audit_creation_date              2019-12-31
_audit_creation_method            'Pymatgen'
_symmetry_space_group_name_H-M    'P1'
_symmetry_Int_Tables_number       1
loop_
_symmetry_equiv_pos_as_xyz
  x,y,z
_cell_length_a                    40.827
_cell_length_b                    62.7079
_cell_length_c                    29.8406
_cell_angle_alpha                 90.0
_cell_angle_beta                 90.0
_cell_angle_gamma                 90.0
loop_
_atom_site_label
_atom_site_type_symbol
_atom_site_fract_x
_atom_site_fract_y
_atom_site_fract_z
V1     V     0.2932   0.4438   0.2905
V2     V     0.7932   0.4438   0.2905
V3     V     0.4568   0.5562   0.2095
V4     V     0.9568   0.5562   0.2095
V5     V     0.0818   0.4438   0.4595
V6     V     0.5818   0.4438   0.4595
V7     V     0.4182   0.5562   0.5405
V8     V     0.9182   0.5562   0.5405
V9     V     0.3318   0.4438   0.9595
V10     V     0.8318   0.4438   0.9595
V11     V     0.1682   0.5562   0.0405
V12     V     0.6682   0.5562   0.0405
V13     V     0.0432   0.4438   0.7905
V14     V     0.5432   0.4438   0.7905
V15     V     0.2068   0.5562   0.7095
V16     V     0.7068   0.5562   0.7095
V17     V     0.1682   0.6939   0.2095
V18     V     0.6682   0.6939   0.2095
V19     V     0.3318   0.8062   0.2905
V20     V     0.8318   0.8062   0.2905
V21     V     0.2068   0.6939   0.5405
V22     V     0.7068   0.6939   0.5405
V23     V     0.0432   0.8062   0.4595
V24     V     0.5432   0.8062   0.4595
V25     V     0.4568   0.6939   0.0405
V26     V     0.9568   0.6939   0.0405
V27     V     0.2932   0.8062   0.9595
V28     V     0.7932   0.8062   0.9595
V29     V     0.4182   0.6939   0.7095
V30     V     0.9182   0.6939   0.7095
V31     V     0.0818   0.8062   0.7905
V32     V     0.5818   0.8062   0.7905
V33     V     0.1682   0.0562   0.5405
V34     V     0.6682   0.0562   0.5405
V35     V     0.3318   0.9438   0.4595
V36     V     0.8318   0.9438   0.4595
V37     V     0.2068   0.0562   0.2095
V38     V     0.7068   0.0562   0.2095
V39     V     0.0432   0.9438   0.2905
V40     V     0.5432   0.9438   0.2905
V41     V     0.4568   0.0562   0.7095
V42     V     0.9568   0.0562   0.7095
V43     V     0.2932   0.9438   0.7905
V44     V     0.7932   0.9438   0.7905
V45     V     0.4182   0.0562   0.0405
V46     V     0.9182   0.0562   0.0405
V47     V     0.0818   0.9438   0.9595
V48     V     0.5818   0.9438   0.9595
V49     V     0.2932   0.3062   0.4595
V50     V     0.7932   0.3062   0.4595
V51     V     0.4568   0.1938   0.5405
V52     V     0.9568   0.1938   0.5405
V53     V     0.0818   0.3062   0.2905
V54     V     0.5818   0.3062   0.2905
V55     V     0.4182   0.1938   0.2095
V56     V     0.9182   0.1938   0.2095
V57     V     0.3318   0.3062   0.7905
V58     V     0.8318   0.3062   0.7905
V59     V     0.1682   0.1938   0.7095
V60     V     0.6682   0.1938   0.7095
V61     V     0.0432   0.3062   0.9595
V62     V     0.5432   0.3062   0.9595
V63     V     0.2068   0.1938   0.0405
V64     V     0.7068   0.1938   0.0405
loop_
_geom_bond_atom_site_label_1
_geom_bond_atom_site_label_2
_geom_bond_distance
_geom_bond_site_symmetry_2
_ccdc_geom_bond_type
V1     V3    10.0   .     S
V1     V9    10.0   1_554     S
V1     V5    10.0   .     S
V1     V49    10.001   .     S
V2     V4    10.0   .     S
V2     V10    10.0   1_554     S
V2     V6    10.0   .     S
V2     V50    10.001   .     S
V3     V7    10.0   .     S
V3     V12    10.0   .     S
V3     V25    10.001   .     S
V4     V8    10.0   .     S
V4     V11    10.0   1_655     S
V4     V26    10.001   .     S
V5     V8    10.0   1_455     S
V5     V13    10.0   .     S
V5     V53    10.001   .     S
V6     V7    10.0   .     S
V6     V14    10.0   .     S
V6     V54    10.001   .     S
V7     V15    10.0   .     S
V7     V29    10.001   .     S
V8     V5    10.0   1_655     S
V8     V16    10.0   .     S
V8     V30    10.001   .     S
V9     V11    10.0   1_556     S
V9     V1    10.0   1_556     S
V9     V14    10.0   .     S
V9     V57    10.001   .     S
V10     V12    10.0   1_556     S
V10     V2    10.0   1_556     S
V10     V13    10.0   1_655     S
V10     V58    10.001   .     S
V11     V9    10.0   1_554     S
V11     V15    10.0   1_554     S
V11     V4    10.0   1_455     S
V11     V17    10.001   .     S
V12     V10    10.0   1_554     S
V12     V16    10.0   1_554     S
V12     V18    10.001   .     S
V13     V15    10.0   .     S
V13     V10    10.0   1_455     S
V13     V61    10.001   .     S
V14     V16    10.0   .     S
V14     V62    10.001   .     S
V15     V11    10.0   1_556     S
V15     V21    10.001   .     S
V16     V12    10.0   1_556     S
V16     V22    10.001   .     S
V17     V19    10.0   .     S
V17     V21    10.0   .     S
V17     V26    10.0   1_455     S
V18     V20    10.0   .     S
V18     V22    10.0   .     S
V18     V25    10.0   .     S
V19     V27    10.0   1_554     S
V19     V24    10.0   .     S
V19     V35    10.001   .     S
V20     V28    10.0   1_554     S
V20     V23    10.0   1_655     S
V20     V36    10.001   .     S
V21     V23    10.0   .     S
V21     V29    10.0   .     S
V22     V24    10.0   .     S
V22     V30    10.0   .     S
V23     V31    10.0   .     S
V23     V20    10.0   1_455     S
V23     V39    10.001   .     S
V24     V32    10.0   .     S
V24     V40    10.001   .     S
V25     V27    10.0   1_554     S
V25     V29    10.0   1_554     S
V26     V28    10.0   1_554     S
V26     V30    10.0   1_554     S
V26     V17    10.0   1_655     S
V27     V25    10.0   1_556     S
V27     V19    10.0   1_556     S
V27     V31    10.0   .     S
V27     V43    10.001   .     S
V28     V26    10.0   1_556     S
V28     V20    10.0   1_556     S
V28     V32    10.0   .     S
V28     V44    10.001   .     S
V29     V32    10.0   .     S
V29     V25    10.0   1_556     S
V30     V31    10.0   1_655     S
V30     V26    10.0   1_556     S
V31     V30    10.0   1_455     S
V31     V47    10.001   .     S
V32     V48    10.001   .     S
V33     V35    10.0   1_545     S
V33     V37    10.0   .     S
V33     V42    10.0   1_455     S
V33     V59    10.001   .     S
V34     V36    10.0   1_545     S
V34     V38    10.0   .     S
V34     V41    10.0   .     S
V34     V60    10.001   .     S
V35     V33    10.0   1_565     S
V35     V43    10.0   .     S
V35     V40    10.0   .     S
V36     V34    10.0   1_565     S
V36     V44    10.0   .     S
V36     V39    10.0   1_655     S
V37     V39    10.0   1_545     S
V37     V45    10.0   .     S
V37     V63    10.001   .     S
V38     V40    10.0   1_545     S
V38     V46    10.0   .     S
V38     V64    10.001   .     S
V39     V37    10.0   1_565     S
V39     V47    10.0   1_554     S
V39     V36    10.0   1_455     S
V40     V38    10.0   1_565     S
V40     V48    10.0   1_554     S
V41     V43    10.0   1_545     S
V41     V45    10.0   1_556     S
V41     V51    10.001   .     S
V42     V44    10.0   1_545     S
V42     V46    10.0   1_556     S
V42     V33    10.0   1_655     S
V42     V52    10.001   .     S
V43     V41    10.0   1_565     S
V43     V47    10.0   .     S
V44     V42    10.0   1_565     S
V44     V48    10.0   .     S
V45     V48    10.0   1_544     S
V45     V41    10.0   1_554     S
V45     V55    10.001   .     S
V46     V47    10.0   1_644     S
V46     V42    10.0   1_554     S
V46     V56    10.001   .     S
V47     V46    10.0   1_466     S
V47     V39    10.0   1_556     S
V48     V45    10.0   1_566     S
V48     V40    10.0   1_556     S
V49     V51    10.0   .     S
V49     V57    10.0   .     S
V49     V53    10.0   .     S
V50     V52    10.0   .     S
V50     V58    10.0   .     S
V50     V54    10.0   .     S
V51     V55    10.0   .     S
V51     V60    10.0   .     S
V52     V56    10.0   .     S
V52     V59    10.0   1_655     S
V53     V56    10.0   1_455     S
V53     V61    10.0   1_554     S
V54     V55    10.0   .     S
V54     V62    10.0   1_554     S
V55     V63    10.0   .     S
V56     V53    10.0   1_655     S
V56     V64    10.0   .     S
V57     V59    10.0   .     S
V57     V62    10.0   .     S
V58     V60    10.0   .     S
V58     V61    10.0   1_655     S
V59     V63    10.0   1_556     S
V59     V52    10.0   1_455     S
V60     V64    10.0   1_556     S
V61     V63    10.0   1_556     S
V61     V53    10.0   1_556     S
V61     V58    10.0   1_455     S
V62     V64    10.0   1_556     S
V62     V54    10.0   1_556     S
V63     V61    10.0   1_554     S
V63     V59    10.0   1_554     S
V64     V62    10.0   1_554     S
V64     V60    10.0   1_554     S
