data_ukn
_audit_creation_date              2019-12-31
_audit_creation_method            'Pymatgen'
_symmetry_space_group_name_H-M    'P1'
_symmetry_Int_Tables_number       1
loop_
_symmetry_equiv_pos_as_xyz
  x,y,z
_cell_length_a                    70.6434
_cell_length_b                    70.6434
_cell_length_c                    35.951
_cell_angle_alpha                 90.0
_cell_angle_beta                 90.0
_cell_angle_gamma                 120.0
loop_
_atom_site_label
_atom_site_type_symbol
_atom_site_fract_x
_atom_site_fract_y
_atom_site_fract_z
V1     V     0.2554   0.8862   0.2917
V2     V     0.2554   0.8862   0.7917
V3     V     0.4113   0.9642   0.375
V4     V     0.4113   0.9642   0.875
V5     V     0.4471   0.0358   0.125
V6     V     0.4471   0.0358   0.625
V7     V     0.3692   0.1138   0.2083
V8     V     0.3692   0.1138   0.7083
V9     V     0.2195   0.922   0.0417
V10     V     0.2195   0.922   0.5417
V11     V     0.2975   0.078   0.4583
V12     V     0.2975   0.078   0.9583
V13     V     0.7025   0.922   0.0417
V14     V     0.7025   0.922   0.5417
V15     V     0.7805   0.078   0.4583
V16     V     0.7805   0.078   0.9583
V17     V     0.7446   0.1138   0.2083
V18     V     0.7446   0.1138   0.7083
V19     V     0.5887   0.0358   0.125
V20     V     0.5887   0.0358   0.625
V21     V     0.5529   0.9642   0.375
V22     V     0.5529   0.9642   0.875
V23     V     0.6308   0.8862   0.2917
V24     V     0.6308   0.8862   0.7917
V25     V     0.7446   0.6308   0.2083
V26     V     0.7446   0.6308   0.7083
V27     V     0.5887   0.5529   0.125
V28     V     0.5887   0.5529   0.625
V29     V     0.6308   0.7446   0.2917
V30     V     0.6308   0.7446   0.7917
V31     V     0.5529   0.5887   0.375
V32     V     0.5529   0.5887   0.875
V33     V     0.7025   0.7805   0.0417
V34     V     0.7025   0.7805   0.5417
V35     V     0.7805   0.7025   0.4583
V36     V     0.7805   0.7025   0.9583
V37     V     0.3692   0.2554   0.2083
V38     V     0.3692   0.2554   0.7083
V39     V     0.4471   0.4113   0.125
V40     V     0.4471   0.4113   0.625
V41     V     0.2195   0.2975   0.0417
V42     V     0.2195   0.2975   0.5417
V43     V     0.2975   0.2195   0.4583
V44     V     0.2975   0.2195   0.9583
V45     V     0.2554   0.3692   0.2917
V46     V     0.2554   0.3692   0.7917
V47     V     0.4113   0.4471   0.375
V48     V     0.4113   0.4471   0.875
V49     V     0.9642   0.5529   0.125
V50     V     0.9642   0.5529   0.625
V51     V     0.8862   0.6308   0.2083
V52     V     0.8862   0.6308   0.7083
V53     V     0.078   0.7805   0.0417
V54     V     0.078   0.7805   0.5417
V55     V     0.922   0.7025   0.4583
V56     V     0.922   0.7025   0.9583
V57     V     0.1138   0.7446   0.2917
V58     V     0.1138   0.7446   0.7917
V59     V     0.0358   0.5887   0.375
V60     V     0.0358   0.5887   0.875
V61     V     0.922   0.2195   0.4583
V62     V     0.922   0.2195   0.9583
V63     V     0.078   0.2975   0.0417
V64     V     0.078   0.2975   0.5417
V65     V     0.8862   0.2554   0.2083
V66     V     0.8862   0.2554   0.7083
V67     V     0.9642   0.4113   0.125
V68     V     0.9642   0.4113   0.625
V69     V     0.1138   0.3692   0.2917
V70     V     0.1138   0.3692   0.7917
V71     V     0.0358   0.4471   0.375
V72     V     0.0358   0.4471   0.875
loop_
_geom_bond_atom_site_label_1
_geom_bond_atom_site_label_2
_geom_bond_distance
_geom_bond_site_symmetry_2
_ccdc_geom_bond_type
V1     V9    10.0   .     S
V1     V10    10.0   .     S
V1     V3    10.0   .     S
V1     V57    10.0   .     S
V2     V10    10.0   .     S
V2     V9    10.0   1_556     S
V2     V4    10.0   .     S
V2     V58    10.0   .     S
V3     V6    10.0   1_565     S
V3     V5    10.0   1_565     S
V3     V21    10.0   .     S
V4     V5    10.0   1_566     S
V4     V6    10.0   1_565     S
V4     V22    10.0   .     S
V5     V4    10.0   1_544     S
V5     V3    10.0   1_545     S
V5     V7    10.0   .     S
V5     V19    10.0   .     S
V6     V3    10.0   1_545     S
V6     V4    10.0   1_545     S
V6     V8    10.0   .     S
V6     V20    10.0   .     S
V7     V12    10.0   1_554     S
V7     V11    10.0   .     S
V7     V37    10.0   .     S
V8     V11    10.0   .     S
V8     V12    10.0   .     S
V8     V38    10.0   .     S
V9     V2    10.0   1_554     S
V9     V12    10.0   1_564     S
V9     V53    10.0   .     S
V10     V11    10.0   1_565     S
V10     V54    10.0   .     S
V11     V10    10.0   1_545     S
V11     V43    10.0   .     S
V12     V7    10.0   1_556     S
V12     V9    10.0   1_546     S
V12     V44    10.0   .     S
V13     V16    10.0   1_564     S
V13     V23    10.0   .     S
V13     V24    10.0   1_554     S
V13     V33    10.0   .     S
V14     V15    10.0   1_565     S
V14     V24    10.0   .     S
V14     V23    10.0   .     S
V14     V34    10.0   .     S
V15     V18    10.0   .     S
V15     V17    10.0   .     S
V15     V14    10.0   1_545     S
V15     V61    10.0   .     S
V16     V17    10.0   1_556     S
V16     V18    10.0   .     S
V16     V13    10.0   1_546     S
V16     V62    10.0   .     S
V17     V16    10.0   1_554     S
V17     V19    10.0   .     S
V17     V65    10.0   .     S
V18     V20    10.0   .     S
V18     V66    10.0   .     S
V19     V22    10.0   1_544     S
V19     V21    10.0   1_545     S
V20     V21    10.0   1_545     S
V20     V22    10.0   1_545     S
V21     V20    10.0   1_565     S
V21     V19    10.0   1_565     S
V21     V23    10.0   .     S
V22     V19    10.0   1_566     S
V22     V20    10.0   1_565     S
V22     V24    10.0   .     S
V23     V29    10.0   .     S
V24     V13    10.0   1_556     S
V24     V30    10.0   .     S
V25     V36    10.0   1_554     S
V25     V27    10.0   .     S
V25     V35    10.0   .     S
V25     V51    10.0   .     S
V26     V35    10.0   .     S
V26     V28    10.0   .     S
V26     V36    10.0   .     S
V26     V52    10.0   .     S
V27     V32    10.0   1_554     S
V27     V31    10.0   .     S
V27     V39    10.0   .     S
V28     V31    10.0   .     S
V28     V32    10.0   .     S
V28     V40    10.0   .     S
V29     V33    10.0   .     S
V29     V34    10.0   .     S
V29     V31    10.0   .     S
V30     V34    10.0   .     S
V30     V33    10.0   1_556     S
V30     V32    10.0   .     S
V31     V47    10.0   .     S
V32     V27    10.0   1_556     S
V32     V48    10.0   .     S
V33     V30    10.0   1_554     S
V33     V36    10.0   1_554     S
V34     V35    10.0   .     S
V35     V55    10.0   .     S
V36     V25    10.0   1_556     S
V36     V33    10.0   1_556     S
V36     V56    10.0   .     S
V37     V44    10.0   1_554     S
V37     V39    10.0   .     S
V37     V43    10.0   .     S
V38     V43    10.0   .     S
V38     V40    10.0   .     S
V38     V44    10.0   .     S
V39     V48    10.0   1_554     S
V39     V47    10.0   .     S
V40     V47    10.0   .     S
V40     V48    10.0   .     S
V41     V44    10.0   1_554     S
V41     V45    10.0   .     S
V41     V46    10.0   1_554     S
V41     V63    10.0   .     S
V42     V43    10.0   .     S
V42     V46    10.0   .     S
V42     V45    10.0   .     S
V42     V64    10.0   .     S
V44     V37    10.0   1_556     S
V44     V41    10.0   1_556     S
V45     V47    10.0   .     S
V45     V69    10.0   .     S
V46     V41    10.0   1_556     S
V46     V48    10.0   .     S
V46     V70    10.0   .     S
V48     V39    10.0   1_556     S
V49     V60    10.0   1_654     S
V49     V59    10.0   1_655     S
V49     V51    10.0   .     S
V49     V67    10.0   .     S
V50     V59    10.0   1_655     S
V50     V60    10.0   1_655     S
V50     V52    10.0   .     S
V50     V68    10.0   .     S
V51     V56    10.0   1_554     S
V51     V55    10.0   .     S
V52     V55    10.0   .     S
V52     V56    10.0   .     S
V53     V57    10.0   .     S
V53     V56    10.0   1_454     S
V53     V58    10.0   1_554     S
V54     V58    10.0   .     S
V54     V55    10.0   1_455     S
V54     V57    10.0   .     S
V55     V54    10.0   1_655     S
V56     V51    10.0   1_556     S
V56     V53    10.0   1_656     S
V57     V59    10.0   .     S
V58     V53    10.0   1_556     S
V58     V60    10.0   .     S
V59     V50    10.0   1_455     S
V59     V49    10.0   1_455     S
V59     V71    10.0   .     S
V60     V49    10.0   1_456     S
V60     V50    10.0   1_455     S
V60     V72    10.0   .     S
V61     V65    10.0   .     S
V61     V66    10.0   .     S
V61     V64    10.0   1_655     S
V62     V66    10.0   .     S
V62     V65    10.0   1_556     S
V62     V63    10.0   1_656     S
V63     V62    10.0   1_454     S
V63     V69    10.0   .     S
V63     V70    10.0   1_554     S
V64     V61    10.0   1_455     S
V64     V70    10.0   .     S
V64     V69    10.0   .     S
V65     V62    10.0   1_554     S
V65     V67    10.0   .     S
V66     V68    10.0   .     S
V67     V72    10.0   1_654     S
V67     V71    10.0   1_655     S
V68     V71    10.0   1_655     S
V68     V72    10.0   1_655     S
V69     V71    10.0   .     S
V70     V63    10.0   1_556     S
V70     V72    10.0   .     S
V71     V68    10.0   1_455     S
V71     V67    10.0   1_455     S
V72     V67    10.0   1_456     S
V72     V68    10.0   1_455     S
