data_ukv
_audit_creation_date              2019-12-31
_audit_creation_method            'Pymatgen'
_symmetry_space_group_name_H-M    'P1'
_symmetry_Int_Tables_number       1
loop_
_symmetry_equiv_pos_as_xyz
  x,y,z
_cell_length_a                    67.3161
_cell_length_b                    67.3161
_cell_length_c                    28.5338
_cell_angle_alpha                 90.0
_cell_angle_beta                 90.0
_cell_angle_gamma                 120.0
loop_
_atom_site_label
_atom_site_type_symbol
_atom_site_fract_x
_atom_site_fract_y
_atom_site_fract_z
V1     V     0.7354   0.9198   0.4369
V2     V     0.7354   0.9198   0.9369
V3     V     0.5979   0.851   0.1464
V4     V     0.5979   0.851   0.6464
V5     V     0.7354   0.8157   0.1869
V6     V     0.7354   0.8157   0.6869
V7     V     0.5979   0.7469   0.3964
V8     V     0.5979   0.7469   0.8964
V9     V     0.7469   0.149   0.1036
V10     V     0.7469   0.149   0.6036
V11     V     0.8157   0.0802   0.3131
V12     V     0.8157   0.0802   0.8131
V13     V     0.9198   0.1843   0.0631
V14     V     0.9198   0.1843   0.5631
V15     V     0.851   0.2531   0.3536
V16     V     0.851   0.2531   0.8536
V17     V     0.4136   0.9312   0.0202
V18     V     0.4136   0.9312   0.5202
V19     V     0.4823   0.0688   0.2298
V20     V     0.4823   0.0688   0.7298
V21     V     0.5177   0.9312   0.2702
V22     V     0.5177   0.9312   0.7702
V23     V     0.5864   0.0688   0.4798
V24     V     0.5864   0.0688   0.9798
V25     V     0.8157   0.7354   0.0631
V26     V     0.8157   0.7354   0.5631
V27     V     0.7469   0.5979   0.3536
V28     V     0.7469   0.5979   0.8536
V29     V     0.9198   0.7354   0.3131
V30     V     0.9198   0.7354   0.8131
V31     V     0.851   0.5979   0.1036
V32     V     0.851   0.5979   0.6036
V33     V     0.4136   0.4823   0.2702
V34     V     0.4136   0.4823   0.7702
V35     V     0.4823   0.4136   0.4798
V36     V     0.4823   0.4136   0.9798
V37     V     0.5177   0.5864   0.0202
V38     V     0.5177   0.5864   0.5202
V39     V     0.5864   0.5177   0.2298
V40     V     0.5864   0.5177   0.7298
V41     V     0.149   0.7469   0.1464
V42     V     0.149   0.7469   0.6464
V43     V     0.0802   0.8157   0.4369
V44     V     0.0802   0.8157   0.9369
V45     V     0.2531   0.851   0.3964
V46     V     0.2531   0.851   0.8964
V47     V     0.1843   0.9198   0.1869
V48     V     0.1843   0.9198   0.6869
V49     V     0.149   0.4021   0.3964
V50     V     0.149   0.4021   0.8964
V51     V     0.0802   0.2646   0.1869
V52     V     0.0802   0.2646   0.6869
V53     V     0.2531   0.4021   0.1464
V54     V     0.2531   0.4021   0.6464
V55     V     0.1843   0.2646   0.4369
V56     V     0.1843   0.2646   0.9369
V57     V     0.2646   0.1843   0.3131
V58     V     0.2646   0.1843   0.8131
V59     V     0.4021   0.2531   0.1036
V60     V     0.4021   0.2531   0.6036
V61     V     0.2646   0.0802   0.0631
V62     V     0.2646   0.0802   0.5631
V63     V     0.4021   0.149   0.3536
V64     V     0.4021   0.149   0.8536
V65     V     0.9312   0.4136   0.2298
V66     V     0.9312   0.4136   0.7298
V67     V     0.0688   0.4823   0.0202
V68     V     0.0688   0.4823   0.5202
V69     V     0.9312   0.5177   0.4798
V70     V     0.9312   0.5177   0.9798
V71     V     0.0688   0.5864   0.2702
V72     V     0.0688   0.5864   0.7702
loop_
_geom_bond_atom_site_label_1
_geom_bond_atom_site_label_2
_geom_bond_distance
_geom_bond_site_symmetry_2
_ccdc_geom_bond_type
V1     V4    10.0   .     S
V1     V5    10.0   .     S
V1     V6    10.0   .     S
V1     V11    10.001   1_565     S
V2     V3    10.0   1_556     S
V2     V6    10.0   .     S
V2     V5    10.0   1_556     S
V2     V12    10.001   1_565     S
V3     V2    10.0   1_554     S
V3     V7    10.0   .     S
V3     V8    10.0   1_554     S
V3     V21    10.001   .     S
V4     V8    10.0   .     S
V4     V7    10.0   .     S
V4     V22    10.001   .     S
V5     V7    10.0   .     S
V5     V2    10.0   1_554     S
V5     V25    10.001   .     S
V6     V8    10.0   .     S
V6     V26    10.001   .     S
V7     V38    10.001   .     S
V8     V3    10.0   1_556     S
V8     V37    10.001   1_556     S
V9     V11    10.0   .     S
V9     V16    10.0   1_554     S
V9     V15    10.0   .     S
V9     V24    10.001   1_554     S
V10     V12    10.0   .     S
V10     V15    10.0   .     S
V10     V16    10.0   .     S
V10     V23    10.001   .     S
V11     V1    10.001   1_545     S
V11     V14    10.0   .     S
V11     V13    10.0   .     S
V12     V2    10.001   1_545     S
V12     V13    10.0   1_556     S
V12     V14    10.0   .     S
V13     V12    10.0   1_554     S
V13     V16    10.0   1_554     S
V13     V51    10.001   1_655     S
V14     V15    10.0   .     S
V14     V52    10.001   1_655     S
V15     V65    10.001   .     S
V16     V13    10.0   1_556     S
V16     V9    10.0   1_556     S
V16     V66    10.001   .     S
V17     V19    10.0   1_565     S
V17     V21    10.0   .     S
V17     V22    10.0   1_554     S
V17     V46    10.001   1_554     S
V18     V20    10.0   1_565     S
V18     V22    10.0   .     S
V18     V21    10.0   .     S
V18     V45    10.001   .     S
V19     V17    10.0   1_545     S
V19     V24    10.0   1_554     S
V19     V23    10.0   .     S
V19     V63    10.001   .     S
V20     V18    10.0   1_545     S
V20     V23    10.0   .     S
V20     V24    10.0   .     S
V20     V64    10.001   .     S
V21     V23    10.0   1_565     S
V22     V24    10.0   1_565     S
V22     V17    10.0   1_556     S
V23     V21    10.0   1_545     S
V24     V19    10.0   1_556     S
V24     V22    10.0   1_545     S
V24     V9    10.001   1_556     S
V25     V28    10.0   1_554     S
V25     V29    10.0   .     S
V25     V30    10.0   1_554     S
V26     V27    10.0   .     S
V26     V30    10.0   .     S
V26     V29    10.0   .     S
V27     V32    10.0   .     S
V27     V31    10.0   .     S
V27     V39    10.001   .     S
V28     V25    10.0   1_556     S
V28     V31    10.0   1_556     S
V28     V32    10.0   .     S
V28     V40    10.001   .     S
V29     V31    10.0   .     S
V29     V43    10.001   1_655     S
V30     V32    10.0   .     S
V30     V25    10.0   1_556     S
V30     V44    10.001   1_655     S
V31     V28    10.0   1_554     S
V31     V70    10.001   1_554     S
V32     V69    10.001   .     S
V33     V35    10.0   .     S
V33     V37    10.0   .     S
V33     V38    10.0   .     S
V33     V53    10.001   .     S
V34     V36    10.0   .     S
V34     V38    10.0   .     S
V34     V37    10.0   1_556     S
V34     V54    10.001   .     S
V35     V40    10.0   .     S
V35     V39    10.0   .     S
V35     V60    10.001   .     S
V36     V39    10.0   1_556     S
V36     V40    10.0   .     S
V36     V59    10.001   1_556     S
V37     V39    10.0   .     S
V37     V34    10.0   1_554     S
V37     V8    10.001   1_554     S
V38     V40    10.0   .     S
V39     V36    10.0   1_554     S
V41     V44    10.0   1_554     S
V41     V45    10.0   .     S
V41     V46    10.0   1_554     S
V41     V71    10.001   .     S
V42     V43    10.0   .     S
V42     V46    10.0   .     S
V42     V45    10.0   .     S
V42     V72    10.001   .     S
V43     V47    10.0   .     S
V43     V48    10.0   .     S
V43     V29    10.001   1_455     S
V44     V41    10.0   1_556     S
V44     V48    10.0   .     S
V44     V47    10.0   1_556     S
V44     V30    10.001   1_455     S
V45     V47    10.0   .     S
V46     V48    10.0   .     S
V46     V41    10.0   1_556     S
V46     V17    10.001   1_556     S
V47     V44    10.0   1_554     S
V47     V61    10.001   1_565     S
V48     V62    10.001   1_565     S
V49     V51    10.0   .     S
V49     V53    10.0   .     S
V49     V54    10.0   .     S
V49     V68    10.001   .     S
V50     V52    10.0   .     S
V50     V54    10.0   .     S
V50     V53    10.0   1_556     S
V50     V67    10.001   1_556     S
V51     V13    10.001   1_455     S
V51     V55    10.0   .     S
V51     V56    10.0   1_554     S
V52     V14    10.001   1_455     S
V52     V56    10.0   .     S
V52     V55    10.0   .     S
V53     V56    10.0   1_554     S
V53     V50    10.0   1_554     S
V54     V55    10.0   .     S
V55     V57    10.001   .     S
V56     V53    10.0   1_556     S
V56     V51    10.0   1_556     S
V56     V58    10.001   .     S
V57     V59    10.0   .     S
V57     V62    10.0   .     S
V57     V61    10.0   .     S
V58     V60    10.0   .     S
V58     V61    10.0   1_556     S
V58     V62    10.0   .     S
V59     V64    10.0   1_554     S
V59     V63    10.0   .     S
V59     V36    10.001   1_554     S
V60     V63    10.0   .     S
V60     V64    10.0   .     S
V61     V47    10.001   1_545     S
V61     V64    10.0   1_554     S
V61     V58    10.0   1_554     S
V62     V48    10.001   1_545     S
V62     V63    10.0   .     S
V64     V61    10.0   1_556     S
V64     V59    10.0   1_556     S
V65     V67    10.0   1_655     S
V65     V70    10.0   1_554     S
V65     V69    10.0   .     S
V66     V68    10.0   1_655     S
V66     V69    10.0   .     S
V66     V70    10.0   .     S
V67     V50    10.001   1_554     S
V67     V65    10.0   1_455     S
V67     V71    10.0   .     S
V67     V72    10.0   1_554     S
V68     V66    10.0   1_455     S
V68     V72    10.0   .     S
V68     V71    10.0   .     S
V69     V71    10.0   1_655     S
V70     V31    10.001   1_556     S
V70     V72    10.0   1_655     S
V70     V65    10.0   1_556     S
V71     V69    10.0   1_455     S
V72     V67    10.0   1_556     S
V72     V70    10.0   1_455     S
