data_ume
_audit_creation_date              2019-12-31
_audit_creation_method            'Pymatgen'
_symmetry_space_group_name_H-M    'P1'
_symmetry_Int_Tables_number       1
loop_
_symmetry_equiv_pos_as_xyz
  x,y,z
_cell_length_a                    39.4956
_cell_length_b                    39.4956
_cell_length_c                    72.4052
_cell_angle_alpha                 90.0
_cell_angle_beta                 90.0
_cell_angle_gamma                 90.0
loop_
_atom_site_label
_atom_site_type_symbol
_atom_site_fract_x
_atom_site_fract_y
_atom_site_fract_z
V1     V     0.125   0.23   0.9441
V2     V     0.125   0.73   0.9441
V3     V     0.625   0.23   0.9441
V4     V     0.625   0.73   0.9441
V5     V     0.23   0.125   0.0559
V6     V     0.23   0.625   0.0559
V7     V     0.73   0.125   0.0559
V8     V     0.73   0.625   0.0559
V9     V     0.375   0.27   0.9441
V10     V     0.375   0.77   0.9441
V11     V     0.875   0.27   0.9441
V12     V     0.875   0.77   0.9441
V13     V     0.27   0.375   0.0559
V14     V     0.27   0.875   0.0559
V15     V     0.77   0.375   0.0559
V16     V     0.77   0.875   0.0559
V17     V     0.27   0.375   0.1941
V18     V     0.27   0.875   0.1941
V19     V     0.77   0.375   0.1941
V20     V     0.77   0.875   0.1941
V21     V     0.375   0.48   0.3059
V22     V     0.375   0.98   0.3059
V23     V     0.875   0.48   0.3059
V24     V     0.875   0.98   0.3059
V25     V     0.125   0.02   0.3059
V26     V     0.125   0.52   0.3059
V27     V     0.625   0.02   0.3059
V28     V     0.625   0.52   0.3059
V29     V     0.23   0.125   0.1941
V30     V     0.23   0.625   0.1941
V31     V     0.73   0.125   0.1941
V32     V     0.73   0.625   0.1941
V33     V     0.48   0.375   0.6941
V34     V     0.48   0.875   0.6941
V35     V     0.98   0.375   0.6941
V36     V     0.98   0.875   0.6941
V37     V     0.375   0.27   0.8059
V38     V     0.375   0.77   0.8059
V39     V     0.875   0.27   0.8059
V40     V     0.875   0.77   0.8059
V41     V     0.125   0.23   0.8059
V42     V     0.125   0.73   0.8059
V43     V     0.625   0.23   0.8059
V44     V     0.625   0.73   0.8059
V45     V     0.02   0.125   0.6941
V46     V     0.02   0.625   0.6941
V47     V     0.52   0.125   0.6941
V48     V     0.52   0.625   0.6941
V49     V     0.125   0.02   0.4441
V50     V     0.125   0.52   0.4441
V51     V     0.625   0.02   0.4441
V52     V     0.625   0.52   0.4441
V53     V     0.02   0.125   0.5559
V54     V     0.02   0.625   0.5559
V55     V     0.52   0.125   0.5559
V56     V     0.52   0.625   0.5559
V57     V     0.375   0.48   0.4441
V58     V     0.375   0.98   0.4441
V59     V     0.875   0.48   0.4441
V60     V     0.875   0.98   0.4441
V61     V     0.48   0.375   0.5559
V62     V     0.48   0.875   0.5559
V63     V     0.98   0.375   0.5559
V64     V     0.98   0.875   0.5559
loop_
_geom_bond_atom_site_label_1
_geom_bond_atom_site_label_2
_geom_bond_distance
_geom_bond_site_symmetry_2
_ccdc_geom_bond_type
V1     V5    10.0   1_556     S
V1     V11    10.0   1_455     S
V1     V9    10.0   .     S
V1     V41    10.001   .     S
V2     V6    10.0   1_556     S
V2     V12    10.0   1_455     S
V2     V10    10.0   .     S
V2     V42    10.001   .     S
V3     V7    10.0   1_556     S
V3     V9    10.0   .     S
V3     V11    10.0   .     S
V3     V43    10.001   .     S
V4     V8    10.0   1_556     S
V4     V10    10.0   .     S
V4     V12    10.0   .     S
V4     V44    10.001   .     S
V5     V1    10.0   1_554     S
V5     V14    10.0   1_545     S
V5     V13    10.0   .     S
V5     V29    10.001   .     S
V6     V2    10.0   1_554     S
V6     V13    10.0   .     S
V6     V14    10.0   .     S
V6     V30    10.001   .     S
V7     V3    10.0   1_554     S
V7     V16    10.0   1_545     S
V7     V15    10.0   .     S
V7     V31    10.001   .     S
V8     V4    10.0   1_554     S
V8     V15    10.0   .     S
V8     V16    10.0   .     S
V8     V32    10.001   .     S
V9     V13    10.0   1_556     S
V9     V37    10.001   .     S
V10     V14    10.0   1_556     S
V10     V38    10.001   .     S
V11     V15    10.0   1_556     S
V11     V1    10.0   1_655     S
V11     V39    10.001   .     S
V12     V16    10.0   1_556     S
V12     V2    10.0   1_655     S
V12     V40    10.001   .     S
V13     V9    10.0   1_554     S
V13     V17    10.001   .     S
V14     V10    10.0   1_554     S
V14     V5    10.0   1_565     S
V14     V18    10.001   .     S
V15     V11    10.0   1_554     S
V15     V19    10.001   .     S
V16     V12    10.0   1_554     S
V16     V7    10.0   1_565     S
V16     V20    10.001   .     S
V17     V21    10.0   .     S
V17     V29    10.0   .     S
V17     V30    10.0   .     S
V18     V22    10.0   .     S
V18     V30    10.0   .     S
V18     V29    10.0   1_565     S
V19     V23    10.0   .     S
V19     V31    10.0   .     S
V19     V32    10.0   .     S
V20     V24    10.0   .     S
V20     V32    10.0   .     S
V20     V31    10.0   1_565     S
V21     V28    10.0   .     S
V21     V26    10.0   .     S
V21     V57    10.001   .     S
V22     V27    10.0   1_565     S
V22     V25    10.0   1_565     S
V22     V58    10.001   .     S
V23     V26    10.0   1_655     S
V23     V28    10.0   .     S
V23     V59    10.001   .     S
V24     V25    10.0   1_665     S
V24     V27    10.0   1_565     S
V24     V60    10.001   .     S
V25     V29    10.0   .     S
V25     V24    10.0   1_445     S
V25     V22    10.0   1_545     S
V25     V49    10.001   .     S
V26     V30    10.0   .     S
V26     V23    10.0   1_455     S
V26     V50    10.001   .     S
V27     V31    10.0   .     S
V27     V22    10.0   1_545     S
V27     V24    10.0   1_545     S
V27     V51    10.001   .     S
V28     V32    10.0   .     S
V28     V52    10.001   .     S
V29     V18    10.0   1_545     S
V31     V20    10.0   1_545     S
V33     V37    10.0   .     S
V33     V48    10.0   .     S
V33     V47    10.0   .     S
V33     V61    10.001   .     S
V34     V38    10.0   .     S
V34     V47    10.0   1_565     S
V34     V48    10.0   .     S
V34     V62    10.001   .     S
V35     V39    10.0   .     S
V35     V46    10.0   1_655     S
V35     V45    10.0   1_655     S
V35     V63    10.001   .     S
V36     V40    10.0   .     S
V36     V45    10.0   1_665     S
V36     V46    10.0   1_655     S
V36     V64    10.001   .     S
V37     V41    10.0   .     S
V37     V43    10.0   .     S
V38     V42    10.0   .     S
V38     V44    10.0   .     S
V39     V43    10.0   .     S
V39     V41    10.0   1_655     S
V40     V44    10.0   .     S
V40     V42    10.0   1_655     S
V41     V45    10.0   .     S
V41     V39    10.0   1_455     S
V42     V46    10.0   .     S
V42     V40    10.0   1_455     S
V43     V47    10.0   .     S
V44     V48    10.0   .     S
V45     V36    10.0   1_445     S
V45     V35    10.0   1_455     S
V45     V53    10.001   .     S
V46     V35    10.0   1_455     S
V46     V36    10.0   1_455     S
V46     V54    10.001   .     S
V47     V34    10.0   1_545     S
V47     V55    10.001   .     S
V48     V56    10.001   .     S
V49     V53    10.0   .     S
V49     V58    10.0   1_545     S
V49     V60    10.0   1_445     S
V50     V54    10.0   .     S
V50     V57    10.0   .     S
V50     V59    10.0   1_455     S
V51     V55    10.0   .     S
V51     V60    10.0   1_545     S
V51     V58    10.0   1_545     S
V52     V56    10.0   .     S
V52     V59    10.0   .     S
V52     V57    10.0   .     S
V53     V63    10.0   1_455     S
V53     V64    10.0   1_445     S
V54     V64    10.0   1_455     S
V54     V63    10.0   1_455     S
V55     V61    10.0   .     S
V55     V62    10.0   1_545     S
V56     V62    10.0   .     S
V56     V61    10.0   .     S
V57     V61    10.0   .     S
V58     V62    10.0   .     S
V58     V49    10.0   1_565     S
V58     V51    10.0   1_565     S
V59     V63    10.0   .     S
V59     V50    10.0   1_655     S
V60     V64    10.0   .     S
V60     V51    10.0   1_565     S
V60     V49    10.0   1_665     S
V62     V55    10.0   1_565     S
V63     V53    10.0   1_655     S
V63     V54    10.0   1_655     S
V64     V54    10.0   1_655     S
V64     V53    10.0   1_665     S
