data_umf
_audit_creation_date              2019-12-31
_audit_creation_method            'Pymatgen'
_symmetry_space_group_name_H-M    'P1'
_symmetry_Int_Tables_number       1
loop_
_symmetry_equiv_pos_as_xyz
  x,y,z
_cell_length_a                    39.6638
_cell_length_b                    39.6638
_cell_length_c                    35.685
_cell_angle_alpha                 90.0
_cell_angle_beta                 90.0
_cell_angle_gamma                 90.0
loop_
_atom_site_label
_atom_site_type_symbol
_atom_site_fract_x
_atom_site_fract_y
_atom_site_fract_z
V1     V     0.375   0.0163   0.6389
V2     V     0.375   0.5163   0.6389
V3     V     0.875   0.0163   0.6389
V4     V     0.875   0.5163   0.6389
V5     V     0.4837   0.125   0.8611
V6     V     0.4837   0.625   0.8611
V7     V     0.9837   0.125   0.8611
V8     V     0.9837   0.625   0.8611
V9     V     0.125   0.4837   0.6389
V10     V     0.125   0.9837   0.6389
V11     V     0.625   0.4837   0.6389
V12     V     0.625   0.9837   0.6389
V13     V     0.0163   0.375   0.8611
V14     V     0.0163   0.875   0.8611
V15     V     0.5163   0.375   0.8611
V16     V     0.5163   0.875   0.8611
V17     V     0.0163   0.125   0.1389
V18     V     0.0163   0.625   0.1389
V19     V     0.5163   0.125   0.1389
V20     V     0.5163   0.625   0.1389
V21     V     0.125   0.0163   0.3611
V22     V     0.125   0.5163   0.3611
V23     V     0.625   0.0163   0.3611
V24     V     0.625   0.5163   0.3611
V25     V     0.375   0.4837   0.3611
V26     V     0.375   0.9837   0.3611
V27     V     0.875   0.4837   0.3611
V28     V     0.875   0.9837   0.3611
V29     V     0.4837   0.375   0.1389
V30     V     0.4837   0.875   0.1389
V31     V     0.9837   0.375   0.1389
V32     V     0.9837   0.875   0.1389
loop_
_geom_bond_atom_site_label_1
_geom_bond_atom_site_label_2
_geom_bond_distance
_geom_bond_site_symmetry_2
_ccdc_geom_bond_type
V1     V5    10.0   .     S
V1     V10    10.0   1_545     S
V1     V12    10.0   1_545     S
V1     V26    10.0   1_545     S
V2     V6    10.0   .     S
V2     V9    10.0   .     S
V2     V11    10.0   .     S
V2     V25    10.0   .     S
V3     V7    10.0   .     S
V3     V12    10.0   1_545     S
V3     V10    10.0   1_645     S
V3     V28    10.0   1_545     S
V4     V8    10.0   .     S
V4     V11    10.0   .     S
V4     V9    10.0   1_655     S
V4     V27    10.0   .     S
V5     V15    10.0   .     S
V5     V16    10.0   1_545     S
V5     V19    10.0   1_556     S
V6     V16    10.0   .     S
V6     V15    10.0   .     S
V6     V20    10.0   1_556     S
V7     V13    10.0   1_655     S
V7     V14    10.0   1_645     S
V7     V17    10.0   1_656     S
V8     V14    10.0   1_655     S
V8     V13    10.0   1_655     S
V8     V18    10.0   1_656     S
V9     V13    10.0   .     S
V9     V4    10.0   1_455     S
V9     V22    10.0   .     S
V10     V1    10.0   1_565     S
V10     V14    10.0   .     S
V10     V3    10.0   1_465     S
V10     V21    10.0   1_565     S
V11     V15    10.0   .     S
V11     V24    10.0   .     S
V12     V3    10.0   1_565     S
V12     V16    10.0   .     S
V12     V1    10.0   1_565     S
V12     V23    10.0   1_565     S
V13     V7    10.0   1_455     S
V13     V8    10.0   1_455     S
V13     V31    10.0   1_456     S
V14     V8    10.0   1_455     S
V14     V7    10.0   1_465     S
V14     V32    10.0   1_456     S
V15     V29    10.0   1_556     S
V16     V5    10.0   1_565     S
V16     V30    10.0   1_556     S
V17     V21    10.0   .     S
V17     V31    10.0   1_455     S
V17     V32    10.0   1_445     S
V17     V7    10.0   1_454     S
V18     V22    10.0   .     S
V18     V32    10.0   1_455     S
V18     V31    10.0   1_455     S
V18     V8    10.0   1_454     S
V19     V23    10.0   .     S
V19     V29    10.0   .     S
V19     V30    10.0   1_545     S
V19     V5    10.0   1_554     S
V20     V24    10.0   .     S
V20     V30    10.0   .     S
V20     V29    10.0   .     S
V20     V6    10.0   1_554     S
V21     V10    10.0   1_545     S
V21     V26    10.0   1_545     S
V21     V28    10.0   1_445     S
V22     V25    10.0   .     S
V22     V27    10.0   1_455     S
V23     V12    10.0   1_545     S
V23     V28    10.0   1_545     S
V23     V26    10.0   1_545     S
V24     V27    10.0   .     S
V24     V25    10.0   .     S
V25     V29    10.0   .     S
V26     V1    10.0   1_565     S
V26     V30    10.0   .     S
V26     V21    10.0   1_565     S
V26     V23    10.0   1_565     S
V27     V31    10.0   .     S
V27     V22    10.0   1_655     S
V28     V3    10.0   1_565     S
V28     V32    10.0   .     S
V28     V23    10.0   1_565     S
V28     V21    10.0   1_665     S
V29     V15    10.0   1_554     S
V30     V19    10.0   1_565     S
V30     V16    10.0   1_554     S
V31     V17    10.0   1_655     S
V31     V18    10.0   1_655     S
V31     V13    10.0   1_654     S
V32     V18    10.0   1_655     S
V32     V17    10.0   1_665     S
V32     V14    10.0   1_654     S
