data_umg
_audit_creation_date              2019-12-31
_audit_creation_method            'Pymatgen'
_symmetry_space_group_name_H-M    'P1'
_symmetry_Int_Tables_number       1
loop_
_symmetry_equiv_pos_as_xyz
  x,y,z
_cell_length_a                    39.784
_cell_length_b                    39.784
_cell_length_c                    57.3971
_cell_angle_alpha                 90.0
_cell_angle_beta                 90.0
_cell_angle_gamma                 120.0
loop_
_atom_site_label
_atom_site_type_symbol
_atom_site_fract_x
_atom_site_fract_y
_atom_site_fract_z
V1     V     0.3675   0.2349   0.0871
V2     V     0.3675   0.7349   0.0871
V3     V     0.8675   0.2349   0.0871
V4     V     0.8675   0.7349   0.0871
V5     V     0.3675   0.2349   0.9129
V6     V     0.3675   0.7349   0.9129
V7     V     0.8675   0.2349   0.9129
V8     V     0.8675   0.7349   0.9129
V9     V     0.1325   0.2651   0.0871
V10     V     0.1325   0.7651   0.0871
V11     V     0.6325   0.2651   0.0871
V12     V     0.6325   0.7651   0.0871
V13     V     0.1325   0.2651   0.9129
V14     V     0.1325   0.7651   0.9129
V15     V     0.6325   0.2651   0.9129
V16     V     0.6325   0.7651   0.9129
V17     V     0.2651   0.1325   0.7538
V18     V     0.2651   0.6325   0.7538
V19     V     0.7651   0.1325   0.7538
V20     V     0.7651   0.6325   0.7538
V21     V     0.2651   0.1325   0.5796
V22     V     0.2651   0.6325   0.5796
V23     V     0.7651   0.1325   0.5796
V24     V     0.7651   0.6325   0.5796
V25     V     0.2349   0.3675   0.7538
V26     V     0.2349   0.8675   0.7538
V27     V     0.7349   0.3675   0.7538
V28     V     0.7349   0.8675   0.7538
V29     V     0.2349   0.3675   0.5796
V30     V     0.2349   0.8675   0.5796
V31     V     0.7349   0.3675   0.5796
V32     V     0.7349   0.8675   0.5796
V33     V     0.1325   0.3675   0.2462
V34     V     0.1325   0.8675   0.2462
V35     V     0.6325   0.3675   0.2462
V36     V     0.6325   0.8675   0.2462
V37     V     0.1325   0.3675   0.4204
V38     V     0.1325   0.8675   0.4204
V39     V     0.6325   0.3675   0.4204
V40     V     0.6325   0.8675   0.4204
V41     V     0.3675   0.1325   0.2462
V42     V     0.3675   0.6325   0.2462
V43     V     0.8675   0.1325   0.2462
V44     V     0.8675   0.6325   0.2462
V45     V     0.3675   0.1325   0.4204
V46     V     0.3675   0.6325   0.4204
V47     V     0.8675   0.1325   0.4204
V48     V     0.8675   0.6325   0.4204
loop_
_geom_bond_atom_site_label_1
_geom_bond_atom_site_label_2
_geom_bond_distance
_geom_bond_site_symmetry_2
_ccdc_geom_bond_type
V1     V5    10.0   1_554     S
V1     V9    10.0   .     S
V1     V11    10.0   .     S
V1     V41    10.0   .     S
V2     V6    10.0   1_554     S
V2     V10    10.0   .     S
V2     V12    10.0   .     S
V2     V42    10.0   .     S
V3     V7    10.0   1_554     S
V3     V11    10.0   .     S
V3     V9    10.0   1_655     S
V3     V43    10.0   .     S
V4     V8    10.0   1_554     S
V4     V12    10.0   .     S
V4     V10    10.0   1_655     S
V4     V44    10.0   .     S
V5     V1    10.0   1_556     S
V5     V17    10.0   .     S
V5     V13    10.0   .     S
V5     V15    10.0   .     S
V6     V2    10.0   1_556     S
V6     V18    10.0   .     S
V6     V14    10.0   .     S
V6     V16    10.0   .     S
V7     V3    10.0   1_556     S
V7     V19    10.0   .     S
V7     V15    10.0   .     S
V7     V13    10.0   1_655     S
V8     V4    10.0   1_556     S
V8     V20    10.0   .     S
V8     V16    10.0   .     S
V8     V14    10.0   1_655     S
V9     V13    10.0   1_554     S
V9     V3    10.0   1_455     S
V9     V33    10.0   .     S
V10     V14    10.0   1_554     S
V10     V4    10.0   1_455     S
V10     V34    10.0   .     S
V11     V15    10.0   1_554     S
V11     V35    10.0   .     S
V12     V16    10.0   1_554     S
V12     V36    10.0   .     S
V13     V9    10.0   1_556     S
V13     V25    10.0   .     S
V13     V7    10.0   1_455     S
V14     V10    10.0   1_556     S
V14     V26    10.0   .     S
V14     V8    10.0   1_455     S
V15     V11    10.0   1_556     S
V15     V27    10.0   .     S
V16     V12    10.0   1_556     S
V16     V28    10.0   .     S
V17     V21    10.0   .     S
V17     V25    10.0   .     S
V17     V26    10.0   1_545     S
V18     V22    10.0   .     S
V18     V26    10.0   .     S
V18     V25    10.0   .     S
V19     V23    10.0   .     S
V19     V27    10.0   .     S
V19     V28    10.0   1_545     S
V20     V24    10.0   .     S
V20     V28    10.0   .     S
V20     V27    10.0   .     S
V21     V45    10.0   .     S
V21     V29    10.0   .     S
V21     V30    10.0   1_545     S
V22     V46    10.0   .     S
V22     V30    10.0   .     S
V22     V29    10.0   .     S
V23     V47    10.0   .     S
V23     V31    10.0   .     S
V23     V32    10.0   1_545     S
V24     V48    10.0   .     S
V24     V32    10.0   .     S
V24     V31    10.0   .     S
V25     V29    10.0   .     S
V26     V30    10.0   .     S
V26     V17    10.0   1_565     S
V27     V31    10.0   .     S
V28     V32    10.0   .     S
V28     V19    10.0   1_565     S
V29     V37    10.0   .     S
V30     V38    10.0   .     S
V30     V21    10.0   1_565     S
V31     V39    10.0   .     S
V32     V40    10.0   .     S
V32     V23    10.0   1_565     S
V33     V37    10.0   .     S
V33     V43    10.0   1_455     S
V33     V42    10.0   .     S
V34     V38    10.0   .     S
V34     V44    10.0   1_455     S
V34     V41    10.0   1_565     S
V35     V39    10.0   .     S
V35     V41    10.0   .     S
V35     V44    10.0   .     S
V36     V40    10.0   .     S
V36     V42    10.0   .     S
V36     V43    10.0   1_565     S
V37     V47    10.0   1_455     S
V37     V46    10.0   .     S
V38     V48    10.0   1_455     S
V38     V45    10.0   1_565     S
V39     V45    10.0   .     S
V39     V48    10.0   .     S
V40     V46    10.0   .     S
V40     V47    10.0   1_565     S
V41     V45    10.0   .     S
V41     V34    10.0   1_545     S
V42     V46    10.0   .     S
V43     V33    10.0   1_655     S
V43     V47    10.0   .     S
V43     V36    10.0   1_545     S
V44     V34    10.0   1_655     S
V44     V48    10.0   .     S
V45     V38    10.0   1_545     S
V47     V37    10.0   1_655     S
V47     V40    10.0   1_545     S
V48     V38    10.0   1_655     S
