data_umj
_audit_creation_date              2019-12-31
_audit_creation_method            'Pymatgen'
_symmetry_space_group_name_H-M    'P1'
_symmetry_Int_Tables_number       1
loop_
_symmetry_equiv_pos_as_xyz
  x,y,z
_cell_length_a                    39.8516
_cell_length_b                    39.8516
_cell_length_c                    57.0638
_cell_angle_alpha                 90.0
_cell_angle_beta                 90.0
_cell_angle_gamma                 120.0
loop_
_atom_site_label
_atom_site_type_symbol
_atom_site_fract_x
_atom_site_fract_y
_atom_site_fract_z
V1     V     0.0125   0.3812   0.254
V2     V     0.0125   0.8812   0.254
V3     V     0.5125   0.3812   0.254
V4     V     0.5125   0.8812   0.254
V5     V     0.1188   0.4875   0.4127
V6     V     0.1188   0.9875   0.4127
V7     V     0.6188   0.4875   0.4127
V8     V     0.6188   0.9875   0.4127
V9     V     0.4875   0.1188   0.254
V10     V     0.4875   0.6188   0.254
V11     V     0.9875   0.1188   0.254
V12     V     0.9875   0.6188   0.254
V13     V     0.3812   0.0125   0.4127
V14     V     0.3812   0.5125   0.4127
V15     V     0.8812   0.0125   0.4127
V16     V     0.8812   0.5125   0.4127
V17     V     0.1312   0.0125   0.5873
V18     V     0.1312   0.5125   0.5873
V19     V     0.6312   0.0125   0.5873
V20     V     0.6312   0.5125   0.5873
V21     V     0.1312   0.1188   0.746
V22     V     0.1312   0.6188   0.746
V23     V     0.6312   0.1188   0.746
V24     V     0.6312   0.6188   0.746
V25     V     0.3688   0.4875   0.5873
V26     V     0.3688   0.9875   0.5873
V27     V     0.8688   0.4875   0.5873
V28     V     0.8688   0.9875   0.5873
V29     V     0.3688   0.3812   0.746
V30     V     0.3688   0.8812   0.746
V31     V     0.8688   0.3812   0.746
V32     V     0.8688   0.8812   0.746
V33     V     0.3812   0.3688   0.9206
V34     V     0.3812   0.8688   0.9206
V35     V     0.8812   0.3688   0.9206
V36     V     0.8812   0.8688   0.9206
V37     V     0.4875   0.3688   0.0794
V38     V     0.4875   0.8688   0.0794
V39     V     0.9875   0.3688   0.0794
V40     V     0.9875   0.8688   0.0794
V41     V     0.1188   0.1312   0.9206
V42     V     0.1188   0.6312   0.9206
V43     V     0.6188   0.1312   0.9206
V44     V     0.6188   0.6312   0.9206
V45     V     0.0125   0.1312   0.0794
V46     V     0.0125   0.6312   0.0794
V47     V     0.5125   0.1312   0.0794
V48     V     0.5125   0.6312   0.0794
loop_
_geom_bond_atom_site_label_1
_geom_bond_atom_site_label_2
_geom_bond_distance
_geom_bond_site_symmetry_2
_ccdc_geom_bond_type
V1     V39    10.0   1_455     S
V1     V5    10.0   .     S
V1     V12    10.0   1_455     S
V1     V11    10.0   1_455     S
V2     V40    10.0   1_455     S
V2     V6    10.0   .     S
V2     V11    10.0   1_465     S
V2     V12    10.0   1_455     S
V3     V37    10.0   .     S
V3     V7    10.0   .     S
V3     V10    10.0   .     S
V3     V9    10.0   .     S
V4     V38    10.0   .     S
V4     V8    10.0   .     S
V4     V9    10.0   1_565     S
V4     V10    10.0   .     S
V5     V16    10.0   1_455     S
V5     V14    10.0   .     S
V5     V18    10.0   .     S
V6     V15    10.0   1_465     S
V6     V13    10.0   1_565     S
V6     V17    10.0   1_565     S
V7     V14    10.0   .     S
V7     V16    10.0   .     S
V7     V20    10.0   .     S
V8     V13    10.0   1_565     S
V8     V15    10.0   1_565     S
V8     V19    10.0   1_565     S
V9     V47    10.0   .     S
V9     V13    10.0   .     S
V9     V4    10.0   1_545     S
V10     V48    10.0   .     S
V10     V14    10.0   .     S
V11     V45    10.0   1_655     S
V11     V15    10.0   .     S
V11     V2    10.0   1_645     S
V11     V1    10.0   1_655     S
V12     V46    10.0   1_655     S
V12     V16    10.0   .     S
V12     V1    10.0   1_655     S
V12     V2    10.0   1_655     S
V13     V8    10.0   1_545     S
V13     V6    10.0   1_545     S
V13     V26    10.0   1_545     S
V14     V25    10.0   .     S
V15     V6    10.0   1_645     S
V15     V8    10.0   1_545     S
V15     V28    10.0   1_545     S
V16     V5    10.0   1_655     S
V16     V27    10.0   .     S
V17     V6    10.0   1_545     S
V17     V21    10.0   .     S
V17     V26    10.0   1_545     S
V17     V28    10.0   1_445     S
V18     V22    10.0   .     S
V18     V25    10.0   .     S
V18     V27    10.0   1_455     S
V19     V8    10.0   1_545     S
V19     V23    10.0   .     S
V19     V28    10.0   1_545     S
V19     V26    10.0   1_545     S
V20     V24    10.0   .     S
V20     V27    10.0   .     S
V20     V25    10.0   .     S
V21     V29    10.0   .     S
V21     V32    10.0   1_445     S
V21     V41    10.0   .     S
V22     V30    10.0   .     S
V22     V31    10.0   1_455     S
V22     V42    10.0   .     S
V23     V31    10.0   .     S
V23     V30    10.0   1_545     S
V23     V43    10.0   .     S
V24     V32    10.0   .     S
V24     V29    10.0   .     S
V24     V44    10.0   .     S
V25     V29    10.0   .     S
V26     V13    10.0   1_565     S
V26     V30    10.0   .     S
V26     V17    10.0   1_565     S
V26     V19    10.0   1_565     S
V27     V31    10.0   .     S
V27     V18    10.0   1_655     S
V28     V15    10.0   1_565     S
V28     V32    10.0   .     S
V28     V19    10.0   1_565     S
V28     V17    10.0   1_665     S
V29     V33    10.0   .     S
V30     V23    10.0   1_565     S
V30     V34    10.0   .     S
V31     V22    10.0   1_655     S
V31     V35    10.0   .     S
V32     V21    10.0   1_665     S
V32     V36    10.0   .     S
V33     V37    10.0   1_556     S
V33     V44    10.0   .     S
V33     V41    10.0   .     S
V34     V38    10.0   1_556     S
V34     V43    10.0   1_565     S
V34     V42    10.0   .     S
V35     V39    10.0   1_556     S
V35     V42    10.0   1_655     S
V35     V43    10.0   .     S
V36     V40    10.0   1_556     S
V36     V41    10.0   1_665     S
V36     V44    10.0   .     S
V37     V33    10.0   1_554     S
V37     V48    10.0   .     S
V37     V47    10.0   .     S
V38     V34    10.0   1_554     S
V38     V47    10.0   1_565     S
V38     V48    10.0   .     S
V39     V1    10.0   1_655     S
V39     V35    10.0   1_554     S
V39     V46    10.0   1_655     S
V39     V45    10.0   1_655     S
V40     V2    10.0   1_655     S
V40     V36    10.0   1_554     S
V40     V45    10.0   1_665     S
V40     V46    10.0   1_655     S
V41     V45    10.0   1_556     S
V41     V36    10.0   1_445     S
V42     V46    10.0   1_556     S
V42     V35    10.0   1_455     S
V43     V47    10.0   1_556     S
V43     V34    10.0   1_545     S
V44     V48    10.0   1_556     S
V45     V11    10.0   1_455     S
V45     V41    10.0   1_554     S
V45     V40    10.0   1_445     S
V45     V39    10.0   1_455     S
V46     V12    10.0   1_455     S
V46     V42    10.0   1_554     S
V46     V39    10.0   1_455     S
V46     V40    10.0   1_455     S
V47     V43    10.0   1_554     S
V47     V38    10.0   1_545     S
V48     V44    10.0   1_554     S
