data_uml
_audit_creation_date              2019-12-31
_audit_creation_method            'Pymatgen'
_symmetry_space_group_name_H-M    'P1'
_symmetry_Int_Tables_number       1
loop_
_symmetry_equiv_pos_as_xyz
  x,y,z
_cell_length_a                    66.3798
_cell_length_b                    66.3798
_cell_length_c                    38.5044
_cell_angle_alpha                 90.0
_cell_angle_beta                 90.0
_cell_angle_gamma                 120.0
loop_
_atom_site_label
_atom_site_type_symbol
_atom_site_fract_x
_atom_site_fract_y
_atom_site_fract_z
V1     V     0.0236   0.4393   0.25
V2     V     0.0236   0.4393   0.75
V3     V     0.9764   0.5607   0.25
V4     V     0.9764   0.5607   0.75
V5     V     0.9764   0.4157   0.5
V6     V     0.9764   0.4157   1.0
V7     V     0.0236   0.5843   0.0
V8     V     0.0236   0.5843   0.5
V9     V     0.3569   0.251   0.3333
V10     V     0.3569   0.251   0.8333
V11     V     0.3098   0.0824   0.3333
V12     V     0.3098   0.0824   0.8333
V13     V     0.3569   0.1059   0.0833
V14     V     0.3569   0.1059   0.5833
V15     V     0.3098   0.2274   0.0833
V16     V     0.3098   0.2274   0.5833
V17     V     0.2509   0.8941   0.1667
V18     V     0.2509   0.8941   0.6667
V19     V     0.0824   0.7726   0.1667
V20     V     0.0824   0.7726   0.6667
V21     V     0.1059   0.7491   0.4167
V22     V     0.1059   0.7491   0.9167
V23     V     0.2274   0.9176   0.4167
V24     V     0.2274   0.9176   0.9167
V25     V     0.1059   0.3569   0.1667
V26     V     0.1059   0.3569   0.6667
V27     V     0.2274   0.3098   0.1667
V28     V     0.2274   0.3098   0.6667
V29     V     0.2509   0.3569   0.4167
V30     V     0.2509   0.3569   0.9167
V31     V     0.0824   0.3098   0.4167
V32     V     0.0824   0.3098   0.9167
V33     V     0.4393   0.4157   0.25
V34     V     0.4393   0.4157   0.75
V35     V     0.5607   0.5843   0.25
V36     V     0.5607   0.5843   0.75
V37     V     0.5843   0.5607   0.5
V38     V     0.5843   0.5607   1.0
V39     V     0.4157   0.4393   0.0
V40     V     0.4157   0.4393   0.5
V41     V     0.4393   0.0236   0.5
V42     V     0.4393   0.0236   1.0
V43     V     0.5607   0.9764   0.0
V44     V     0.5607   0.9764   0.5
V45     V     0.5843   0.0236   0.25
V46     V     0.5843   0.0236   0.75
V47     V     0.4157   0.9764   0.25
V48     V     0.4157   0.9764   0.75
V49     V     0.749   0.1059   0.3333
V50     V     0.749   0.1059   0.8333
V51     V     0.9176   0.2274   0.3333
V52     V     0.9176   0.2274   0.8333
V53     V     0.8941   0.251   0.0833
V54     V     0.8941   0.251   0.5833
V55     V     0.7726   0.0824   0.0833
V56     V     0.7726   0.0824   0.5833
V57     V     0.9176   0.6902   0.0833
V58     V     0.9176   0.6902   0.5833
V59     V     0.749   0.6431   0.0833
V60     V     0.749   0.6431   0.5833
V61     V     0.7726   0.6902   0.3333
V62     V     0.7726   0.6902   0.8333
V63     V     0.8941   0.6431   0.3333
V64     V     0.8941   0.6431   0.8333
V65     V     0.6902   0.7726   0.4167
V66     V     0.6902   0.7726   0.9167
V67     V     0.6431   0.8941   0.4167
V68     V     0.6431   0.8941   0.9167
V69     V     0.6431   0.7491   0.1667
V70     V     0.6431   0.7491   0.6667
V71     V     0.6902   0.9176   0.1667
V72     V     0.6902   0.9176   0.6667
loop_
_geom_bond_atom_site_label_1
_geom_bond_atom_site_label_2
_geom_bond_distance
_geom_bond_site_symmetry_2
_ccdc_geom_bond_type
V1     V6    10.0   1_454     S
V1     V3    10.0   1_455     S
V1     V5    10.0   1_455     S
V1     V25    10.001   .     S
V2     V5    10.0   1_455     S
V2     V4    10.0   1_455     S
V2     V6    10.0   1_455     S
V2     V26    10.001   .     S
V3     V63    10.001   .     S
V3     V8    10.0   1_655     S
V3     V7    10.0   1_655     S
V3     V1    10.0   1_655     S
V4     V64    10.001   .     S
V4     V7    10.0   1_656     S
V4     V8    10.0   1_655     S
V4     V2    10.0   1_655     S
V5     V54    10.001   .     S
V5     V2    10.0   1_655     S
V5     V1    10.0   1_655     S
V5     V8    10.0   1_655     S
V6     V53    10.001   1_556     S
V6     V1    10.0   1_656     S
V6     V2    10.0   1_655     S
V6     V7    10.0   1_656     S
V7     V4    10.0   1_454     S
V7     V3    10.0   1_455     S
V7     V6    10.0   1_454     S
V7     V22    10.001   1_554     S
V8     V3    10.0   1_455     S
V8     V4    10.0   1_455     S
V8     V5    10.0   1_455     S
V8     V21    10.001   .     S
V9     V15    10.0   .     S
V9     V11    10.0   .     S
V9     V16    10.0   .     S
V9     V33    10.001   .     S
V10     V16    10.0   .     S
V10     V12    10.0   .     S
V10     V15    10.0   1_556     S
V10     V34    10.001   .     S
V11     V23    10.001   1_545     S
V11     V14    10.0   .     S
V11     V13    10.0   .     S
V12     V24    10.001   1_545     S
V12     V13    10.0   1_556     S
V12     V14    10.0   .     S
V13     V42    10.001   1_554     S
V13     V12    10.0   1_554     S
V13     V15    10.0   .     S
V14     V41    10.001   .     S
V14     V16    10.0   .     S
V15     V10    10.0   1_554     S
V15     V27    10.001   .     S
V16     V28    10.001   .     S
V17     V23    10.0   .     S
V17     V19    10.0   .     S
V17     V24    10.0   1_554     S
V17     V47    10.001   .     S
V18     V24    10.0   .     S
V18     V20    10.0   .     S
V18     V23    10.0   .     S
V18     V48    10.001   .     S
V19     V57    10.001   1_455     S
V19     V22    10.0   1_554     S
V19     V21    10.0   .     S
V20     V58    10.001   1_455     S
V20     V21    10.0   .     S
V20     V22    10.0   .     S
V21     V23    10.0   .     S
V22     V7    10.001   1_556     S
V22     V19    10.0   1_556     S
V22     V24    10.0   .     S
V23     V11    10.001   1_565     S
V24     V12    10.001   1_565     S
V24     V17    10.0   1_556     S
V25     V31    10.0   .     S
V25     V32    10.0   1_554     S
V25     V27    10.0   .     S
V26     V32    10.0   .     S
V26     V31    10.0   .     S
V26     V28    10.0   .     S
V27     V30    10.0   1_554     S
V27     V29    10.0   .     S
V28     V29    10.0   .     S
V28     V30    10.0   .     S
V29     V31    10.0   .     S
V29     V40    10.001   .     S
V30     V27    10.0   1_556     S
V30     V32    10.0   .     S
V30     V39    10.001   1_556     S
V31     V51    10.001   1_455     S
V32     V52    10.001   1_455     S
V32     V25    10.0   1_556     S
V33     V40    10.0   .     S
V33     V39    10.0   .     S
V33     V35    10.0   .     S
V34     V39    10.0   1_556     S
V34     V40    10.0   .     S
V34     V36    10.0   .     S
V35     V38    10.0   1_554     S
V35     V37    10.0   .     S
V35     V69    10.001   .     S
V36     V37    10.0   .     S
V36     V38    10.0   .     S
V36     V70    10.001   .     S
V37     V60    10.001   .     S
V37     V40    10.0   .     S
V38     V59    10.001   1_556     S
V38     V35    10.0   1_556     S
V38     V39    10.0   1_556     S
V39     V30    10.001   1_554     S
V39     V34    10.0   1_554     S
V39     V38    10.0   1_554     S
V41     V48    10.0   1_545     S
V41     V47    10.0   1_545     S
V41     V44    10.0   1_545     S
V42     V13    10.001   1_556     S
V42     V47    10.0   1_546     S
V42     V48    10.0   1_545     S
V42     V43    10.0   1_546     S
V43     V68    10.001   1_554     S
V43     V46    10.0   1_564     S
V43     V42    10.0   1_564     S
V43     V45    10.0   1_565     S
V44     V67    10.001   .     S
V44     V45    10.0   1_565     S
V44     V41    10.0   1_565     S
V44     V46    10.0   1_565     S
V45     V44    10.0   1_545     S
V45     V43    10.0   1_545     S
V45     V47    10.0   1_545     S
V45     V49    10.001   .     S
V46     V43    10.0   1_546     S
V46     V44    10.0   1_545     S
V46     V48    10.0   1_545     S
V46     V50    10.001   .     S
V47     V42    10.0   1_564     S
V47     V41    10.0   1_565     S
V47     V45    10.0   1_565     S
V48     V41    10.0   1_565     S
V48     V42    10.0   1_565     S
V48     V46    10.0   1_565     S
V49     V55    10.0   .     S
V49     V51    10.0   .     S
V49     V56    10.0   .     S
V50     V56    10.0   .     S
V50     V52    10.0   .     S
V50     V55    10.0   1_556     S
V51     V31    10.001   1_655     S
V51     V54    10.0   .     S
V51     V53    10.0   .     S
V52     V32    10.001   1_655     S
V52     V53    10.0   1_556     S
V52     V54    10.0   .     S
V53     V6    10.001   1_554     S
V53     V52    10.0   1_554     S
V53     V55    10.0   .     S
V54     V56    10.0   .     S
V55     V71    10.001   1_545     S
V55     V50    10.0   1_554     S
V56     V72    10.001   1_545     S
V57     V19    10.001   1_655     S
V57     V63    10.0   .     S
V57     V64    10.0   1_554     S
V57     V59    10.0   .     S
V58     V20    10.001   1_655     S
V58     V64    10.0   .     S
V58     V63    10.0   .     S
V58     V60    10.0   .     S
V59     V38    10.001   1_554     S
V59     V62    10.0   1_554     S
V59     V61    10.0   .     S
V60     V61    10.0   .     S
V60     V62    10.0   .     S
V61     V63    10.0   .     S
V61     V65    10.001   .     S
V62     V59    10.0   1_556     S
V62     V64    10.0   .     S
V62     V66    10.001   .     S
V64     V57    10.0   1_556     S
V65     V69    10.0   .     S
V65     V67    10.0   .     S
V65     V70    10.0   .     S
V66     V70    10.0   .     S
V66     V68    10.0   .     S
V66     V69    10.0   1_556     S
V67     V72    10.0   .     S
V67     V71    10.0   .     S
V68     V43    10.001   1_556     S
V68     V71    10.0   1_556     S
V68     V72    10.0   .     S
V69     V66    10.0   1_554     S
V69     V71    10.0   .     S
V70     V72    10.0   .     S
V71     V55    10.001   1_565     S
V71     V68    10.0   1_554     S
V72     V56    10.001   1_565     S
