data_umm
_audit_creation_date              2019-12-31
_audit_creation_method            'Pymatgen'
_symmetry_space_group_name_H-M    'P1'
_symmetry_Int_Tables_number       1
loop_
_symmetry_equiv_pos_as_xyz
  x,y,z
_cell_length_a                    38.3194
_cell_length_b                    38.3194
_cell_length_c                    38.5138
_cell_angle_alpha                 90.0
_cell_angle_beta                 90.0
_cell_angle_gamma                 120.0
loop_
_atom_site_label
_atom_site_type_symbol
_atom_site_fract_x
_atom_site_fract_y
_atom_site_fract_z
V1     V     0.1451   0.6078   0.2083
V2     V     0.1451   0.6078   0.7083
V3     V     0.8549   0.3922   0.2083
V4     V     0.8549   0.3922   0.7083
V5     V     0.3922   0.8549   0.125
V6     V     0.3922   0.8549   0.625
V7     V     0.6078   0.1451   0.125
V8     V     0.6078   0.1451   0.625
V9     V     0.4627   0.8549   0.375
V10     V     0.4627   0.8549   0.875
V11     V     0.5373   0.1451   0.375
V12     V     0.5373   0.1451   0.875
V13     V     0.4627   0.6078   0.2917
V14     V     0.4627   0.6078   0.7917
V15     V     0.5373   0.3922   0.2917
V16     V     0.5373   0.3922   0.7917
V17     V     0.1451   0.5373   0.4583
V18     V     0.1451   0.5373   0.9583
V19     V     0.8549   0.4627   0.4583
V20     V     0.8549   0.4627   0.9583
V21     V     0.3922   0.5373   0.0417
V22     V     0.3922   0.5373   0.5417
V23     V     0.6078   0.4627   0.0417
V24     V     0.6078   0.4627   0.5417
loop_
_geom_bond_atom_site_label_1
_geom_bond_atom_site_label_2
_geom_bond_distance
_geom_bond_site_symmetry_2
_ccdc_geom_bond_type
V1     V5    10.0   .     S
V1     V3    9.999   1_455     S
V1     V18    10.0   1_554     S
V1     V17    10.0   .     S
V2     V6    10.0   .     S
V2     V4    9.999   1_455     S
V2     V17    10.0   .     S
V2     V18    10.0   .     S
V3     V1    9.999   1_655     S
V3     V7    10.0   .     S
V3     V20    10.0   1_554     S
V3     V19    10.0   .     S
V4     V2    9.999   1_655     S
V4     V8    10.0   .     S
V4     V19    10.0   .     S
V4     V20    10.0   .     S
V5     V10    10.0   1_554     S
V5     V7    9.999   1_565     S
V5     V9    10.0   .     S
V6     V9    10.0   .     S
V6     V8    9.999   1_565     S
V6     V10    10.0   .     S
V7     V12    10.0   1_554     S
V7     V5    9.999   1_545     S
V7     V11    10.0   .     S
V8     V11    10.0   .     S
V8     V6    9.999   1_545     S
V8     V12    10.0   .     S
V9     V11    9.999   1_565     S
V9     V13    10.0   .     S
V10     V5    10.0   1_556     S
V10     V12    9.999   1_565     S
V10     V14    10.0   .     S
V11     V15    10.0   .     S
V11     V9    9.999   1_545     S
V12     V7    10.0   1_556     S
V12     V16    10.0   .     S
V12     V10    9.999   1_545     S
V13     V15    9.999   .     S
V13     V22    10.0   .     S
V13     V21    10.0   .     S
V14     V16    9.999   .     S
V14     V21    10.0   1_556     S
V14     V22    10.0   .     S
V15     V24    10.0   .     S
V15     V23    10.0   .     S
V16     V23    10.0   1_556     S
V16     V24    10.0   .     S
V17     V22    10.0   .     S
V17     V19    9.999   1_455     S
V18     V21    10.0   1_556     S
V18     V20    9.999   1_455     S
V18     V1    10.0   1_556     S
V19     V17    9.999   1_655     S
V19     V24    10.0   .     S
V20     V18    9.999   1_655     S
V20     V3    10.0   1_556     S
V20     V23    10.0   1_556     S
V21     V14    10.0   1_554     S
V21     V18    10.0   1_554     S
V21     V23    9.999   .     S
V22     V24    9.999   .     S
V23     V16    10.0   1_554     S
V23     V20    10.0   1_554     S
