data_umr
_audit_creation_date              2019-12-31
_audit_creation_method            'Pymatgen'
_symmetry_space_group_name_H-M    'P1'
_symmetry_Int_Tables_number       1
loop_
_symmetry_equiv_pos_as_xyz
  x,y,z
_cell_length_a                    57.9146
_cell_length_b                    57.9146
_cell_length_c                    33.8074
_cell_angle_alpha                 90.0
_cell_angle_beta                 90.0
_cell_angle_gamma                 90.0
loop_
_atom_site_label
_atom_site_type_symbol
_atom_site_fract_x
_atom_site_fract_y
_atom_site_fract_z
V1     V     0.8337   0.2039   0.0363
V2     V     0.8337   0.2039   0.5363
V3     V     0.8337   0.2961   0.2863
V4     V     0.8337   0.2961   0.7863
V5     V     0.6663   0.2039   0.4637
V6     V     0.6663   0.2039   0.9637
V7     V     0.6663   0.2961   0.2137
V8     V     0.6663   0.2961   0.7137
V9     V     0.9539   0.9163   0.1613
V10     V     0.9539   0.9163   0.6613
V11     V     0.0461   0.9163   0.4113
V12     V     0.0461   0.9163   0.9113
V13     V     0.9539   0.0837   0.0887
V14     V     0.9539   0.0837   0.5887
V15     V     0.0461   0.0837   0.3387
V16     V     0.0461   0.0837   0.8387
V17     V     0.9539   0.4163   0.3387
V18     V     0.9539   0.4163   0.8387
V19     V     0.0461   0.4163   0.0887
V20     V     0.0461   0.4163   0.5887
V21     V     0.9539   0.5837   0.4113
V22     V     0.9539   0.5837   0.9113
V23     V     0.0461   0.5837   0.1613
V24     V     0.0461   0.5837   0.6613
V25     V     0.8337   0.7961   0.2137
V26     V     0.8337   0.7961   0.7137
V27     V     0.8337   0.7039   0.4637
V28     V     0.8337   0.7039   0.9637
V29     V     0.6663   0.7961   0.2863
V30     V     0.6663   0.7961   0.7863
V31     V     0.6663   0.7039   0.0363
V32     V     0.6663   0.7039   0.5363
V33     V     0.3337   0.7961   0.0363
V34     V     0.3337   0.7961   0.5363
V35     V     0.3337   0.7039   0.2863
V36     V     0.3337   0.7039   0.7863
V37     V     0.1663   0.7961   0.4637
V38     V     0.1663   0.7961   0.9637
V39     V     0.1663   0.7039   0.2137
V40     V     0.1663   0.7039   0.7137
V41     V     0.3337   0.2039   0.2137
V42     V     0.3337   0.2039   0.7137
V43     V     0.3337   0.2961   0.4637
V44     V     0.3337   0.2961   0.9637
V45     V     0.1663   0.2039   0.2863
V46     V     0.1663   0.2039   0.7863
V47     V     0.1663   0.2961   0.0363
V48     V     0.1663   0.2961   0.5363
V49     V     0.5461   0.5837   0.0887
V50     V     0.5461   0.5837   0.5887
V51     V     0.4539   0.5837   0.3387
V52     V     0.4539   0.5837   0.8387
V53     V     0.5461   0.4163   0.1613
V54     V     0.5461   0.4163   0.6613
V55     V     0.4539   0.4163   0.4113
V56     V     0.4539   0.4163   0.9113
V57     V     0.5461   0.9163   0.3387
V58     V     0.5461   0.9163   0.8387
V59     V     0.4539   0.9163   0.0887
V60     V     0.4539   0.9163   0.5887
V61     V     0.4539   0.0837   0.1613
V62     V     0.4539   0.0837   0.6613
V63     V     0.5461   0.0837   0.4113
V64     V     0.5461   0.0837   0.9113
loop_
_geom_bond_atom_site_label_1
_geom_bond_atom_site_label_2
_geom_bond_distance
_geom_bond_site_symmetry_2
_ccdc_geom_bond_type
V1     V3    10.0   .     S
V1     V4    10.0   1_554     S
V1     V6    10.0   1_554     S
V1     V13    10.0   .     S
V2     V4    10.0   .     S
V2     V3    10.0   .     S
V2     V5    10.0   .     S
V2     V14    10.0   .     S
V3     V7    10.0   .     S
V3     V17    10.0   .     S
V4     V1    10.0   1_556     S
V4     V8    10.0   .     S
V4     V18    10.0   .     S
V5     V8    10.0   .     S
V5     V7    10.0   .     S
V5     V63    10.0   .     S
V6     V7    10.0   1_556     S
V6     V8    10.0   .     S
V6     V1    10.0   1_556     S
V6     V64    10.0   .     S
V7     V6    10.0   1_554     S
V7     V53    10.0   .     S
V8     V54    10.0   .     S
V9     V12    10.0   1_654     S
V9     V11    10.0   1_655     S
V9     V13    10.0   1_565     S
V9     V25    10.0   .     S
V10     V11    10.0   1_655     S
V10     V12    10.0   1_655     S
V10     V14    10.0   1_565     S
V10     V26    10.0   .     S
V11     V10    10.0   1_455     S
V11     V9    10.0   1_455     S
V11     V15    10.0   1_565     S
V11     V37    10.0   .     S
V12     V9    10.0   1_456     S
V12     V10    10.0   1_455     S
V12     V16    10.0   1_565     S
V12     V38    10.0   .     S
V13     V15    10.0   1_655     S
V13     V16    10.0   1_654     S
V13     V9    10.0   1_545     S
V14     V16    10.0   1_655     S
V14     V15    10.0   1_655     S
V14     V10    10.0   1_545     S
V15     V13    10.0   1_455     S
V15     V14    10.0   1_455     S
V15     V11    10.0   1_545     S
V15     V45    10.0   .     S
V16     V14    10.0   1_455     S
V16     V13    10.0   1_456     S
V16     V12    10.0   1_545     S
V16     V46    10.0   .     S
V17     V20    10.0   1_655     S
V17     V19    10.0   1_655     S
V17     V21    10.0   .     S
V18     V19    10.0   1_656     S
V18     V20    10.0   1_655     S
V18     V22    10.0   .     S
V19     V18    10.0   1_454     S
V19     V17    10.0   1_455     S
V19     V23    10.0   .     S
V19     V47    10.0   .     S
V20     V17    10.0   1_455     S
V20     V18    10.0   1_455     S
V20     V24    10.0   .     S
V20     V48    10.0   .     S
V21     V23    10.0   1_655     S
V21     V24    10.0   1_655     S
V21     V27    10.0   .     S
V22     V24    10.0   1_655     S
V22     V23    10.0   1_656     S
V22     V28    10.0   .     S
V23     V21    10.0   1_455     S
V23     V22    10.0   1_454     S
V23     V39    10.0   .     S
V24     V22    10.0   1_455     S
V24     V21    10.0   1_455     S
V24     V40    10.0   .     S
V25     V28    10.0   1_554     S
V25     V27    10.0   .     S
V25     V29    10.0   .     S
V26     V27    10.0   .     S
V26     V28    10.0   .     S
V26     V30    10.0   .     S
V27     V32    10.0   .     S
V28     V25    10.0   1_556     S
V28     V31    10.0   1_556     S
V29     V32    10.0   .     S
V29     V31    10.0   .     S
V29     V57    10.0   .     S
V30     V31    10.0   1_556     S
V30     V32    10.0   .     S
V30     V58    10.0   .     S
V31     V30    10.0   1_554     S
V31     V28    10.0   1_554     S
V31     V49    10.0   .     S
V32     V50    10.0   .     S
V33     V35    10.0   .     S
V33     V36    10.0   1_554     S
V33     V38    10.0   1_554     S
V33     V59    10.0   .     S
V34     V36    10.0   .     S
V34     V35    10.0   .     S
V34     V37    10.0   .     S
V34     V60    10.0   .     S
V35     V39    10.0   .     S
V35     V51    10.0   .     S
V36     V33    10.0   1_556     S
V36     V40    10.0   .     S
V36     V52    10.0   .     S
V37     V39    10.0   .     S
V37     V40    10.0   .     S
V38     V40    10.0   .     S
V38     V39    10.0   1_556     S
V38     V33    10.0   1_556     S
V39     V38    10.0   1_554     S
V41     V44    10.0   1_554     S
V41     V43    10.0   .     S
V41     V45    10.0   .     S
V41     V61    10.0   .     S
V42     V43    10.0   .     S
V42     V44    10.0   .     S
V42     V46    10.0   .     S
V42     V62    10.0   .     S
V43     V48    10.0   .     S
V43     V55    10.0   .     S
V44     V41    10.0   1_556     S
V44     V47    10.0   1_556     S
V44     V56    10.0   .     S
V45     V48    10.0   .     S
V45     V47    10.0   .     S
V46     V47    10.0   1_556     S
V46     V48    10.0   .     S
V47     V46    10.0   1_554     S
V47     V44    10.0   1_554     S
V49     V52    10.0   1_554     S
V49     V51    10.0   .     S
V49     V53    10.0   .     S
V50     V51    10.0   .     S
V50     V52    10.0   .     S
V50     V54    10.0   .     S
V51     V55    10.0   .     S
V52     V49    10.0   1_556     S
V52     V56    10.0   .     S
V53     V55    10.0   .     S
V53     V56    10.0   1_554     S
V54     V56    10.0   .     S
V54     V55    10.0   .     S
V56     V53    10.0   1_556     S
V57     V60    10.0   .     S
V57     V59    10.0   .     S
V57     V63    10.0   1_565     S
V58     V59    10.0   1_556     S
V58     V60    10.0   .     S
V58     V64    10.0   1_565     S
V59     V58    10.0   1_554     S
V59     V61    10.0   1_565     S
V60     V62    10.0   1_565     S
V61     V63    10.0   .     S
V61     V64    10.0   1_554     S
V61     V59    10.0   1_545     S
V62     V64    10.0   .     S
V62     V63    10.0   .     S
V62     V60    10.0   1_545     S
V63     V57    10.0   1_545     S
V64     V61    10.0   1_556     S
V64     V58    10.0   1_545     S
