data_ums
_audit_creation_date              2019-12-31
_audit_creation_method            'Pymatgen'
_symmetry_space_group_name_H-M    'P1'
_symmetry_Int_Tables_number       1
loop_
_symmetry_equiv_pos_as_xyz
  x,y,z
_cell_length_a                    68.5444
_cell_length_b                    68.5444
_cell_length_c                    31.7576
_cell_angle_alpha                 90.0
_cell_angle_beta                 90.0
_cell_angle_gamma                 120.0
loop_
_atom_site_label
_atom_site_type_symbol
_atom_site_fract_x
_atom_site_fract_y
_atom_site_fract_z
V1     V     0.7455   0.9171   0.0969
V2     V     0.7455   0.9171   0.5969
V3     V     0.8284   0.0829   0.1531
V4     V     0.8284   0.0829   0.6531
V5     V     0.0829   0.2545   0.3469
V6     V     0.0829   0.2545   0.8469
V7     V     0.9171   0.1716   0.4031
V8     V     0.9171   0.1716   0.9031
V9     V     0.1716   0.9171   0.3469
V10     V     0.1716   0.9171   0.8469
V11     V     0.2545   0.0829   0.4031
V12     V     0.2545   0.0829   0.9031
V13     V     0.2545   0.1716   0.1531
V14     V     0.2545   0.1716   0.6531
V15     V     0.1716   0.2545   0.0969
V16     V     0.1716   0.2545   0.5969
V17     V     0.0829   0.8284   0.0969
V18     V     0.0829   0.8284   0.5969
V19     V     0.9171   0.7455   0.1531
V20     V     0.9171   0.7455   0.6531
V21     V     0.8284   0.7455   0.4031
V22     V     0.8284   0.7455   0.9031
V23     V     0.7455   0.8284   0.3469
V24     V     0.7455   0.8284   0.8469
V25     V     0.7495   0.1618   0.2636
V26     V     0.7495   0.1618   0.7636
V27     V     0.5838   0.0789   0.3197
V28     V     0.5838   0.0789   0.8197
V29     V     0.4951   0.0789   0.0697
V30     V     0.4951   0.0789   0.5697
V31     V     0.4122   0.1618   0.0136
V32     V     0.4122   0.1618   0.5136
V33     V     0.4122   0.2505   0.2636
V34     V     0.4122   0.2505   0.7636
V35     V     0.4951   0.4162   0.3197
V36     V     0.4951   0.4162   0.8197
V37     V     0.5838   0.5049   0.0697
V38     V     0.5838   0.5049   0.5697
V39     V     0.7495   0.5878   0.0136
V40     V     0.7495   0.5878   0.5136
V41     V     0.8382   0.5878   0.2636
V42     V     0.8382   0.5878   0.7636
V43     V     0.9211   0.5049   0.3197
V44     V     0.9211   0.5049   0.8197
V45     V     0.8382   0.2505   0.0136
V46     V     0.8382   0.2505   0.5136
V47     V     0.9211   0.4162   0.0697
V48     V     0.9211   0.4162   0.5697
V49     V     0.0789   0.5838   0.4303
V50     V     0.0789   0.5838   0.9303
V51     V     0.1618   0.7495   0.4864
V52     V     0.1618   0.7495   0.9864
V53     V     0.1618   0.4122   0.2364
V54     V     0.1618   0.4122   0.7364
V55     V     0.0789   0.4951   0.1803
V56     V     0.0789   0.4951   0.6803
V57     V     0.2505   0.8382   0.2364
V58     V     0.2505   0.8382   0.7364
V59     V     0.4162   0.9211   0.1803
V60     V     0.4162   0.9211   0.6803
V61     V     0.5878   0.8382   0.4864
V62     V     0.5878   0.8382   0.9864
V63     V     0.5049   0.9211   0.4303
V64     V     0.5049   0.9211   0.9303
V65     V     0.2505   0.4122   0.4864
V66     V     0.2505   0.4122   0.9864
V67     V     0.4162   0.4951   0.4303
V68     V     0.4162   0.4951   0.9303
V69     V     0.5049   0.5838   0.1803
V70     V     0.5049   0.5838   0.6803
V71     V     0.5878   0.7495   0.2364
V72     V     0.5878   0.7495   0.7364
loop_
_geom_bond_atom_site_label_1
_geom_bond_atom_site_label_2
_geom_bond_distance
_geom_bond_site_symmetry_2
_ccdc_geom_bond_type
V1     V62    10.0   1_554     S
V1     V3    10.0   1_565     S
V1     V23    10.0   .     S
V1     V24    10.0   1_554     S
V2     V61    10.0   .     S
V2     V4    10.0   1_565     S
V2     V24    10.0   .     S
V2     V23    10.0   .     S
V3     V25    10.0   .     S
V3     V1    10.0   1_545     S
V3     V8    10.0   1_554     S
V3     V7    10.0   .     S
V4     V26    10.0   .     S
V4     V2    10.0   1_545     S
V4     V7    10.0   .     S
V4     V8    10.0   .     S
V5     V7    10.0   1_455     S
V5     V15    10.0   .     S
V5     V16    10.0   .     S
V5     V53    10.0   .     S
V6     V8    10.0   1_455     S
V6     V16    10.0   .     S
V6     V15    10.0   1_556     S
V6     V54    10.0   .     S
V7     V5    10.0   1_655     S
V7     V46    10.0   .     S
V8     V6    10.0   1_655     S
V8     V3    10.0   1_556     S
V8     V45    10.0   1_556     S
V9     V11    10.0   1_565     S
V9     V18    10.0   .     S
V9     V17    10.0   .     S
V9     V57    10.0   .     S
V10     V12    10.0   1_565     S
V10     V17    10.0   1_556     S
V10     V18    10.0   .     S
V10     V58    10.0   .     S
V11     V32    10.0   .     S
V11     V9    10.0   1_545     S
V11     V13    10.0   .     S
V11     V14    10.0   .     S
V12     V31    10.0   1_556     S
V12     V10    10.0   1_545     S
V12     V14    10.0   .     S
V12     V13    10.0   1_556     S
V13     V33    10.0   .     S
V13     V15    10.0   .     S
V13     V12    10.0   1_554     S
V14     V34    10.0   .     S
V14     V16    10.0   .     S
V15     V6    10.0   1_554     S
V15     V66    10.0   1_554     S
V16     V65    10.0   .     S
V17     V52    10.0   1_554     S
V17     V10    10.0   1_554     S
V17     V19    10.0   1_455     S
V18     V51    10.0   .     S
V18     V20    10.0   1_455     S
V19     V41    10.0   .     S
V19     V17    10.0   1_655     S
V19     V21    10.0   .     S
V19     V22    10.0   1_554     S
V20     V42    10.0   .     S
V20     V18    10.0   1_655     S
V20     V22    10.0   .     S
V20     V21    10.0   .     S
V21     V40    10.0   .     S
V21     V23    10.0   .     S
V22     V39    10.0   1_556     S
V22     V24    10.0   .     S
V22     V19    10.0   1_556     S
V23     V71    10.0   .     S
V24     V72    10.0   .     S
V24     V1    10.0   1_556     S
V25     V27    10.0   .     S
V25     V46    10.0   .     S
V25     V45    10.0   .     S
V26     V28    10.0   .     S
V26     V45    10.0   1_556     S
V26     V46    10.0   .     S
V27     V29    10.0   .     S
V27     V30    10.0   .     S
V27     V63    10.0   1_545     S
V28     V30    10.0   .     S
V28     V29    10.0   1_556     S
V28     V64    10.0   1_545     S
V29     V59    10.0   1_545     S
V29     V28    10.0   1_554     S
V29     V31    10.0   .     S
V30     V60    10.0   1_545     S
V30     V32    10.0   .     S
V31     V12    10.0   1_554     S
V31     V34    10.0   1_554     S
V31     V33    10.0   .     S
V32     V33    10.0   .     S
V32     V34    10.0   .     S
V33     V35    10.0   .     S
V34     V31    10.0   1_556     S
V34     V36    10.0   .     S
V35     V67    10.0   .     S
V35     V38    10.0   .     S
V35     V37    10.0   .     S
V36     V68    10.0   .     S
V36     V37    10.0   1_556     S
V36     V38    10.0   .     S
V37     V69    10.0   .     S
V37     V39    10.0   .     S
V37     V36    10.0   1_554     S
V38     V70    10.0   .     S
V38     V40    10.0   .     S
V39     V22    10.0   1_554     S
V39     V42    10.0   1_554     S
V39     V41    10.0   .     S
V40     V41    10.0   .     S
V40     V42    10.0   .     S
V41     V43    10.0   .     S
V42     V44    10.0   .     S
V42     V39    10.0   1_556     S
V43     V49    10.0   1_655     S
V43     V48    10.0   .     S
V43     V47    10.0   .     S
V44     V50    10.0   1_655     S
V44     V47    10.0   1_556     S
V44     V48    10.0   .     S
V45     V8    10.0   1_554     S
V45     V47    10.0   .     S
V45     V26    10.0   1_554     S
V46     V48    10.0   .     S
V47     V55    10.0   1_655     S
V47     V44    10.0   1_554     S
V48     V56    10.0   1_655     S
V49     V43    10.0   1_455     S
V49     V51    10.0   .     S
V49     V55    10.0   .     S
V49     V56    10.0   .     S
V50     V44    10.0   1_455     S
V50     V52    10.0   .     S
V50     V56    10.0   .     S
V50     V55    10.0   1_556     S
V51     V58    10.0   .     S
V51     V57    10.0   .     S
V52     V17    10.0   1_556     S
V52     V57    10.0   1_556     S
V52     V58    10.0   .     S
V53     V55    10.0   .     S
V53     V66    10.0   1_554     S
V53     V65    10.0   .     S
V54     V56    10.0   .     S
V54     V65    10.0   .     S
V54     V66    10.0   .     S
V55     V47    10.0   1_455     S
V55     V50    10.0   1_554     S
V56     V48    10.0   1_455     S
V57     V59    10.0   .     S
V57     V52    10.0   1_554     S
V58     V60    10.0   .     S
V59     V29    10.0   1_565     S
V59     V63    10.0   .     S
V59     V64    10.0   1_554     S
V60     V30    10.0   1_565     S
V60     V64    10.0   .     S
V60     V63    10.0   .     S
V61     V63    10.0   .     S
V61     V72    10.0   .     S
V61     V71    10.0   .     S
V62     V1    10.0   1_556     S
V62     V64    10.0   .     S
V62     V71    10.0   1_556     S
V62     V72    10.0   .     S
V63     V27    10.0   1_565     S
V64     V28    10.0   1_565     S
V64     V59    10.0   1_556     S
V65     V67    10.0   .     S
V66     V15    10.0   1_556     S
V66     V53    10.0   1_556     S
V66     V68    10.0   .     S
V67     V69    10.0   .     S
V67     V70    10.0   .     S
V68     V70    10.0   .     S
V68     V69    10.0   1_556     S
V69     V71    10.0   .     S
V69     V68    10.0   1_554     S
V70     V72    10.0   .     S
V71     V62    10.0   1_554     S
