data_umu
_audit_creation_date              2019-12-31
_audit_creation_method            'Pymatgen'
_symmetry_space_group_name_H-M    'P1'
_symmetry_Int_Tables_number       1
loop_
_symmetry_equiv_pos_as_xyz
  x,y,z
_cell_length_a                    57.2837
_cell_length_b                    57.2837
_cell_length_c                    32.7554
_cell_angle_alpha                 90.0
_cell_angle_beta                 90.0
_cell_angle_gamma                 90.0
loop_
_atom_site_label
_atom_site_type_symbol
_atom_site_fract_x
_atom_site_fract_y
_atom_site_fract_z
V1     V     0.0873   0.9499   0.125
V2     V     0.0873   0.9499   0.625
V3     V     0.9127   0.9499   0.125
V4     V     0.9127   0.9499   0.625
V5     V     0.8001   0.6627   0.0
V6     V     0.8001   0.6627   0.5
V7     V     0.8001   0.8373   0.0
V8     V     0.8001   0.8373   0.5
V9     V     0.0873   0.5501   0.125
V10     V     0.0873   0.5501   0.625
V11     V     0.9127   0.5501   0.125
V12     V     0.9127   0.5501   0.625
V13     V     0.1999   0.6627   0.0
V14     V     0.1999   0.6627   0.5
V15     V     0.1999   0.8373   0.0
V16     V     0.1999   0.8373   0.5
V17     V     0.1999   0.1627   0.0
V18     V     0.1999   0.1627   0.5
V19     V     0.1999   0.3373   0.0
V20     V     0.1999   0.3373   0.5
V21     V     0.0873   0.0501   0.375
V22     V     0.0873   0.0501   0.875
V23     V     0.9127   0.0501   0.375
V24     V     0.9127   0.0501   0.875
V25     V     0.0873   0.4499   0.375
V26     V     0.0873   0.4499   0.875
V27     V     0.9127   0.4499   0.375
V28     V     0.9127   0.4499   0.875
V29     V     0.8001   0.1627   0.0
V30     V     0.8001   0.1627   0.5
V31     V     0.8001   0.3373   0.0
V32     V     0.8001   0.3373   0.5
V33     V     0.3001   0.1627   0.25
V34     V     0.3001   0.1627   0.75
V35     V     0.3001   0.3373   0.25
V36     V     0.3001   0.3373   0.75
V37     V     0.6999   0.1627   0.25
V38     V     0.6999   0.1627   0.75
V39     V     0.6999   0.3373   0.25
V40     V     0.6999   0.3373   0.75
V41     V     0.4127   0.0501   0.375
V42     V     0.4127   0.0501   0.875
V43     V     0.5873   0.0501   0.375
V44     V     0.5873   0.0501   0.875
V45     V     0.5873   0.4499   0.375
V46     V     0.5873   0.4499   0.875
V47     V     0.4127   0.4499   0.375
V48     V     0.4127   0.4499   0.875
V49     V     0.6999   0.6627   0.25
V50     V     0.6999   0.6627   0.75
V51     V     0.6999   0.8373   0.25
V52     V     0.6999   0.8373   0.75
V53     V     0.4127   0.9499   0.125
V54     V     0.4127   0.9499   0.625
V55     V     0.5873   0.9499   0.125
V56     V     0.5873   0.9499   0.625
V57     V     0.4127   0.5501   0.125
V58     V     0.4127   0.5501   0.625
V59     V     0.5873   0.5501   0.125
V60     V     0.5873   0.5501   0.625
V61     V     0.3001   0.6627   0.25
V62     V     0.3001   0.6627   0.75
V63     V     0.3001   0.8373   0.25
V64     V     0.3001   0.8373   0.75
loop_
_geom_bond_atom_site_label_1
_geom_bond_atom_site_label_2
_geom_bond_distance
_geom_bond_site_symmetry_2
_ccdc_geom_bond_type
V1     V3    9.999   1_455     S
V1     V15    10.0   .     S
V1     V21    10.0   1_565     S
V1     V22    10.0   1_564     S
V2     V4    9.999   1_455     S
V2     V16    10.0   .     S
V2     V22    10.0   1_565     S
V2     V21    10.0   1_565     S
V3     V1    9.999   1_655     S
V3     V7    10.0   .     S
V3     V24    10.0   1_564     S
V3     V23    10.0   1_565     S
V4     V2    9.999   1_655     S
V4     V8    10.0   .     S
V4     V23    10.0   1_565     S
V4     V24    10.0   1_565     S
V5     V7    9.999   .     S
V5     V11    10.0   .     S
V5     V49    10.0   .     S
V5     V50    10.0   1_554     S
V6     V8    9.999   .     S
V6     V12    10.0   .     S
V6     V50    10.0   .     S
V6     V49    10.0   .     S
V7     V51    10.0   .     S
V7     V52    10.0   1_554     S
V8     V52    10.0   .     S
V8     V51    10.0   .     S
V9     V11    9.999   1_455     S
V9     V13    10.0   .     S
V9     V25    10.0   .     S
V9     V26    10.0   1_554     S
V10     V12    9.999   1_455     S
V10     V14    10.0   .     S
V10     V26    10.0   .     S
V10     V25    10.0   .     S
V11     V9    9.999   1_655     S
V11     V27    10.0   .     S
V11     V28    10.0   1_554     S
V12     V10    9.999   1_655     S
V12     V28    10.0   .     S
V12     V27    10.0   .     S
V13     V15    9.999   .     S
V13     V61    10.0   .     S
V13     V62    10.0   1_554     S
V14     V16    9.999   .     S
V14     V62    10.0   .     S
V14     V61    10.0   .     S
V15     V63    10.0   .     S
V15     V64    10.0   1_554     S
V16     V64    10.0   .     S
V16     V63    10.0   .     S
V17     V19    9.999   .     S
V17     V22    10.0   1_554     S
V17     V34    10.0   1_554     S
V17     V33    10.0   .     S
V18     V20    9.999   .     S
V18     V21    10.0   .     S
V18     V33    10.0   .     S
V18     V34    10.0   .     S
V19     V26    10.0   1_554     S
V19     V36    10.0   1_554     S
V19     V35    10.0   .     S
V20     V25    10.0   .     S
V20     V35    10.0   .     S
V20     V36    10.0   .     S
V21     V23    9.999   1_455     S
V21     V1    10.0   1_545     S
V21     V2    10.0   1_545     S
V22     V24    9.999   1_455     S
V22     V17    10.0   1_556     S
V22     V2    10.0   1_545     S
V22     V1    10.0   1_546     S
V23     V21    9.999   1_655     S
V23     V30    10.0   .     S
V23     V4    10.0   1_545     S
V23     V3    10.0   1_545     S
V24     V22    9.999   1_655     S
V24     V29    10.0   1_556     S
V24     V3    10.0   1_546     S
V24     V4    10.0   1_545     S
V25     V27    9.999   1_455     S
V26     V19    10.0   1_556     S
V26     V28    9.999   1_455     S
V26     V9    10.0   1_556     S
V27     V25    9.999   1_655     S
V27     V32    10.0   .     S
V28     V26    9.999   1_655     S
V28     V31    10.0   1_556     S
V28     V11    10.0   1_556     S
V29     V31    9.999   .     S
V29     V24    10.0   1_554     S
V29     V38    10.0   1_554     S
V29     V37    10.0   .     S
V30     V32    9.999   .     S
V30     V37    10.0   .     S
V30     V38    10.0   .     S
V31     V28    10.0   1_554     S
V31     V40    10.0   1_554     S
V31     V39    10.0   .     S
V32     V39    10.0   .     S
V32     V40    10.0   .     S
V33     V35    9.999   .     S
V33     V41    10.0   .     S
V34     V36    9.999   .     S
V34     V42    10.0   .     S
V34     V17    10.0   1_556     S
V35     V47    10.0   .     S
V36     V48    10.0   .     S
V36     V19    10.0   1_556     S
V37     V39    9.999   .     S
V37     V43    10.0   .     S
V38     V40    9.999   .     S
V38     V44    10.0   .     S
V38     V29    10.0   1_556     S
V39     V45    10.0   .     S
V40     V46    10.0   .     S
V40     V31    10.0   1_556     S
V41     V43    9.999   .     S
V41     V53    10.0   1_545     S
V41     V54    10.0   1_545     S
V42     V44    9.999   .     S
V42     V54    10.0   1_545     S
V42     V53    10.0   1_546     S
V43     V55    10.0   1_545     S
V43     V56    10.0   1_545     S
V44     V56    10.0   1_545     S
V44     V55    10.0   1_546     S
V45     V47    9.999   .     S
V45     V59    10.0   .     S
V45     V60    10.0   .     S
V46     V48    9.999   .     S
V46     V60    10.0   .     S
V46     V59    10.0   1_556     S
V47     V57    10.0   .     S
V47     V58    10.0   .     S
V48     V58    10.0   .     S
V48     V57    10.0   1_556     S
V49     V51    9.999   .     S
V49     V59    10.0   .     S
V50     V52    9.999   .     S
V50     V60    10.0   .     S
V50     V5    10.0   1_556     S
V51     V55    10.0   .     S
V52     V56    10.0   .     S
V52     V7    10.0   1_556     S
V53     V55    9.999   .     S
V53     V63    10.0   .     S
V53     V41    10.0   1_565     S
V53     V42    10.0   1_564     S
V54     V56    9.999   .     S
V54     V64    10.0   .     S
V54     V42    10.0   1_565     S
V54     V41    10.0   1_565     S
V55     V43    10.0   1_565     S
V55     V44    10.0   1_564     S
V56     V44    10.0   1_565     S
V56     V43    10.0   1_565     S
V57     V59    9.999   .     S
V57     V61    10.0   .     S
V57     V48    10.0   1_554     S
V58     V60    9.999   .     S
V58     V62    10.0   .     S
V59     V46    10.0   1_554     S
V61     V63    9.999   .     S
V62     V64    9.999   .     S
V62     V13    10.0   1_556     S
V64     V15    10.0   1_556     S
