data_umv
_audit_creation_date              2019-12-31
_audit_creation_method            'Pymatgen'
_symmetry_space_group_name_H-M    'P1'
_symmetry_Int_Tables_number       1
loop_
_symmetry_equiv_pos_as_xyz
  x,y,z
_cell_length_a                    63.1133
_cell_length_b                    32.4546
_cell_length_c                    51.7093
_cell_angle_alpha                 90.0
_cell_angle_beta                 90.0
_cell_angle_gamma                 90.0
loop_
_atom_site_label
_atom_site_type_symbol
_atom_site_fract_x
_atom_site_fract_y
_atom_site_fract_z
V1     V     0.9542   0.4375   0.0685
V2     V     0.9542   0.9375   0.0685
V3     V     0.7958   0.4375   0.0685
V4     V     0.7958   0.9375   0.0685
V5     V     0.9542   0.1875   0.1815
V6     V     0.9542   0.6875   0.1815
V7     V     0.7958   0.1875   0.1815
V8     V     0.7958   0.6875   0.1815
V9     V     0.5458   0.3125   0.3185
V10     V     0.5458   0.8125   0.3185
V11     V     0.7042   0.3125   0.3185
V12     V     0.7042   0.8125   0.3185
V13     V     0.5458   0.0625   0.4315
V14     V     0.5458   0.5625   0.4315
V15     V     0.7042   0.0625   0.4315
V16     V     0.7042   0.5625   0.4315
V17     V     0.9542   0.4375   0.6815
V18     V     0.9542   0.9375   0.6815
V19     V     0.7958   0.4375   0.6815
V20     V     0.7958   0.9375   0.6815
V21     V     0.9542   0.1875   0.5685
V22     V     0.9542   0.6875   0.5685
V23     V     0.7958   0.1875   0.5685
V24     V     0.7958   0.6875   0.5685
V25     V     0.5458   0.0625   0.8185
V26     V     0.5458   0.5625   0.8185
V27     V     0.7042   0.0625   0.8185
V28     V     0.7042   0.5625   0.8185
V29     V     0.5458   0.3125   0.9315
V30     V     0.5458   0.8125   0.9315
V31     V     0.7042   0.3125   0.9315
V32     V     0.7042   0.8125   0.9315
V33     V     0.0458   0.3125   0.8185
V34     V     0.0458   0.8125   0.8185
V35     V     0.2042   0.3125   0.8185
V36     V     0.2042   0.8125   0.8185
V37     V     0.0458   0.0625   0.9315
V38     V     0.0458   0.5625   0.9315
V39     V     0.2042   0.0625   0.9315
V40     V     0.2042   0.5625   0.9315
V41     V     0.4542   0.1875   0.0685
V42     V     0.4542   0.6875   0.0685
V43     V     0.2958   0.1875   0.0685
V44     V     0.2958   0.6875   0.0685
V45     V     0.4542   0.4375   0.1815
V46     V     0.4542   0.9375   0.1815
V47     V     0.2958   0.4375   0.1815
V48     V     0.2958   0.9375   0.1815
V49     V     0.4542   0.1875   0.6815
V50     V     0.4542   0.6875   0.6815
V51     V     0.2958   0.1875   0.6815
V52     V     0.2958   0.6875   0.6815
V53     V     0.4542   0.4375   0.5685
V54     V     0.4542   0.9375   0.5685
V55     V     0.2958   0.4375   0.5685
V56     V     0.2958   0.9375   0.5685
V57     V     0.0458   0.0625   0.3185
V58     V     0.0458   0.5625   0.3185
V59     V     0.2042   0.0625   0.3185
V60     V     0.2042   0.5625   0.3185
V61     V     0.0458   0.3125   0.4315
V62     V     0.0458   0.8125   0.4315
V63     V     0.2042   0.3125   0.4315
V64     V     0.2042   0.8125   0.4315
loop_
_geom_bond_atom_site_label_1
_geom_bond_atom_site_label_2
_geom_bond_distance
_geom_bond_site_symmetry_2
_ccdc_geom_bond_type
V1     V3    10.0   .     S
V1     V6    10.0   .     S
V1     V5    10.0   .     S
V1     V38    10.0   1_654     S
V2     V4    10.0   .     S
V2     V5    10.0   1_565     S
V2     V6    10.0   .     S
V2     V37    10.0   1_664     S
V3     V7    10.0   .     S
V3     V8    10.0   .     S
V3     V31    10.0   1_554     S
V4     V8    10.0   .     S
V4     V7    10.0   1_565     S
V4     V32    10.0   1_554     S
V5     V7    10.0   .     S
V5     V2    10.0   1_545     S
V5     V57    10.0   1_655     S
V6     V8    10.0   .     S
V6     V58    10.0   1_655     S
V7     V4    10.0   1_545     S
V7     V11    10.0   .     S
V8     V12    10.0   .     S
V9     V11    10.0   .     S
V9     V14    10.0   .     S
V9     V13    10.0   .     S
V9     V45    10.0   .     S
V10     V12    10.0   .     S
V10     V13    10.0   1_565     S
V10     V14    10.0   .     S
V10     V46    10.0   .     S
V11     V15    10.0   .     S
V11     V16    10.0   .     S
V12     V16    10.0   .     S
V12     V15    10.0   1_565     S
V13     V15    10.0   .     S
V13     V10    10.0   1_545     S
V13     V54    10.0   1_545     S
V14     V16    10.0   .     S
V14     V53    10.0   .     S
V15     V12    10.0   1_545     S
V15     V23    10.0   .     S
V16     V24    10.0   .     S
V17     V19    10.0   .     S
V17     V21    10.0   .     S
V17     V22    10.0   .     S
V17     V33    10.0   1_655     S
V18     V20    10.0   .     S
V18     V22    10.0   .     S
V18     V21    10.0   1_565     S
V18     V34    10.0   1_655     S
V19     V24    10.0   .     S
V19     V23    10.0   .     S
V19     V28    10.0   .     S
V20     V23    10.0   1_565     S
V20     V24    10.0   .     S
V20     V27    10.0   1_565     S
V21     V23    10.0   .     S
V21     V18    10.0   1_545     S
V21     V61    10.0   1_655     S
V22     V24    10.0   .     S
V22     V62    10.0   1_655     S
V23     V20    10.0   1_545     S
V25     V27    10.0   .     S
V25     V29    10.0   .     S
V25     V30    10.0   1_545     S
V25     V49    10.0   .     S
V26     V28    10.0   .     S
V26     V30    10.0   .     S
V26     V29    10.0   .     S
V26     V50    10.0   .     S
V27     V20    10.0   1_545     S
V27     V32    10.0   1_545     S
V27     V31    10.0   .     S
V28     V31    10.0   .     S
V28     V32    10.0   .     S
V29     V31    10.0   .     S
V29     V41    10.0   1_556     S
V30     V32    10.0   .     S
V30     V25    10.0   1_565     S
V30     V42    10.0   1_556     S
V31     V3    10.0   1_556     S
V32     V4    10.0   1_556     S
V32     V27    10.0   1_565     S
V33     V35    10.0   .     S
V33     V38    10.0   .     S
V33     V37    10.0   .     S
V33     V17    10.0   1_455     S
V34     V36    10.0   .     S
V34     V37    10.0   1_565     S
V34     V38    10.0   .     S
V34     V18    10.0   1_455     S
V35     V39    10.0   .     S
V35     V40    10.0   .     S
V35     V51    10.0   .     S
V36     V40    10.0   .     S
V36     V39    10.0   1_565     S
V36     V52    10.0   .     S
V37     V39    10.0   .     S
V37     V34    10.0   1_545     S
V37     V2    10.0   1_446     S
V38     V40    10.0   .     S
V38     V1    10.0   1_456     S
V39     V36    10.0   1_545     S
V39     V43    10.0   1_556     S
V40     V44    10.0   1_556     S
V41     V43    10.0   .     S
V41     V45    10.0   .     S
V41     V46    10.0   1_545     S
V41     V29    10.0   1_554     S
V42     V44    10.0   .     S
V42     V46    10.0   .     S
V42     V45    10.0   .     S
V42     V30    10.0   1_554     S
V43     V48    10.0   1_545     S
V43     V47    10.0   .     S
V43     V39    10.0   1_554     S
V44     V47    10.0   .     S
V44     V48    10.0   .     S
V44     V40    10.0   1_554     S
V45     V47    10.0   .     S
V46     V48    10.0   .     S
V46     V41    10.0   1_565     S
V47     V60    10.0   .     S
V48     V43    10.0   1_565     S
V48     V59    10.0   1_565     S
V49     V51    10.0   .     S
V49     V54    10.0   1_545     S
V49     V53    10.0   .     S
V50     V52    10.0   .     S
V50     V53    10.0   .     S
V50     V54    10.0   .     S
V51     V55    10.0   .     S
V51     V56    10.0   1_545     S
V52     V56    10.0   .     S
V52     V55    10.0   .     S
V53     V55    10.0   .     S
V54     V56    10.0   .     S
V54     V49    10.0   1_565     S
V54     V13    10.0   1_565     S
V55     V63    10.0   .     S
V56     V51    10.0   1_565     S
V56     V64    10.0   .     S
V57     V59    10.0   .     S
V57     V61    10.0   .     S
V57     V62    10.0   1_545     S
V57     V5    10.0   1_455     S
V58     V60    10.0   .     S
V58     V62    10.0   .     S
V58     V61    10.0   .     S
V58     V6    10.0   1_455     S
V59     V64    10.0   1_545     S
V59     V63    10.0   .     S
V59     V48    10.0   1_545     S
V60     V63    10.0   .     S
V60     V64    10.0   .     S
V61     V63    10.0   .     S
V61     V21    10.0   1_455     S
V62     V64    10.0   .     S
V62     V57    10.0   1_565     S
V62     V22    10.0   1_455     S
V64     V59    10.0   1_565     S
