data_umz
_audit_creation_date              2019-12-31
_audit_creation_method            'Pymatgen'
_symmetry_space_group_name_H-M    'P1'
_symmetry_Int_Tables_number       1
loop_
_symmetry_equiv_pos_as_xyz
  x,y,z
_cell_length_a                    39.8711
_cell_length_b                    39.8711
_cell_length_c                    31.9692
_cell_angle_alpha                 90.0
_cell_angle_beta                 90.0
_cell_angle_gamma                 90.0
loop_
_atom_site_label
_atom_site_type_symbol
_atom_site_fract_x
_atom_site_fract_y
_atom_site_fract_z
V1     V     0.5256   0.1322   0.4464
V2     V     0.5256   0.1322   0.9464
V3     V     0.6322   0.0256   0.1964
V4     V     0.6322   0.0256   0.6964
V5     V     0.4744   0.8678   0.0536
V6     V     0.4744   0.8678   0.5536
V7     V     0.3678   0.9744   0.3036
V8     V     0.3678   0.9744   0.8036
V9     V     0.0256   0.8678   0.4464
V10     V     0.0256   0.8678   0.9464
V11     V     0.1322   0.9744   0.1964
V12     V     0.1322   0.9744   0.6964
V13     V     0.8678   0.0256   0.3036
V14     V     0.8678   0.0256   0.8036
V15     V     0.9744   0.1322   0.0536
V16     V     0.9744   0.1322   0.5536
V17     V     0.1322   0.5256   0.3036
V18     V     0.1322   0.5256   0.8036
V19     V     0.0256   0.6322   0.0536
V20     V     0.0256   0.6322   0.5536
V21     V     0.8678   0.4744   0.1964
V22     V     0.8678   0.4744   0.6964
V23     V     0.9744   0.3678   0.4464
V24     V     0.9744   0.3678   0.9464
V25     V     0.5256   0.3678   0.0536
V26     V     0.5256   0.3678   0.5536
V27     V     0.6322   0.4744   0.3036
V28     V     0.6322   0.4744   0.8036
V29     V     0.3678   0.5256   0.1964
V30     V     0.3678   0.5256   0.6964
V31     V     0.4744   0.6322   0.4464
V32     V     0.4744   0.6322   0.9464
loop_
_geom_bond_atom_site_label_1
_geom_bond_atom_site_label_2
_geom_bond_distance
_geom_bond_site_symmetry_2
_ccdc_geom_bond_type
V1     V3    10.0   .     S
V1     V4    10.0   .     S
V1     V7    10.0   1_545     S
V1     V26    10.0   .     S
V2     V4    10.0   .     S
V2     V3    10.0   1_556     S
V2     V8    10.0   1_545     S
V2     V25    10.0   1_556     S
V3     V2    10.0   1_554     S
V3     V5    10.0   1_545     S
V3     V13    10.0   .     S
V4     V6    10.0   1_545     S
V4     V14    10.0   .     S
V5     V7    10.0   .     S
V5     V8    10.0   1_554     S
V5     V3    10.0   1_565     S
V5     V32    10.0   1_554     S
V6     V8    10.0   .     S
V6     V7    10.0   .     S
V6     V4    10.0   1_565     S
V6     V31    10.0   .     S
V7     V1    10.0   1_565     S
V7     V11    10.0   .     S
V8     V5    10.0   1_556     S
V8     V2    10.0   1_565     S
V8     V12    10.0   .     S
V9     V12    10.0   .     S
V9     V11    10.0   .     S
V9     V13    10.0   1_465     S
V9     V20    10.0   .     S
V10     V11    10.0   1_556     S
V10     V12    10.0   .     S
V10     V14    10.0   1_465     S
V10     V19    10.0   1_556     S
V11     V10    10.0   1_554     S
V11     V15    10.0   1_465     S
V12     V16    10.0   1_465     S
V13     V15    10.0   .     S
V13     V16    10.0   .     S
V13     V9    10.0   1_645     S
V14     V16    10.0   .     S
V14     V15    10.0   1_556     S
V14     V10    10.0   1_645     S
V15     V14    10.0   1_554     S
V15     V11    10.0   1_645     S
V15     V24    10.0   1_554     S
V16     V12    10.0   1_645     S
V16     V23    10.0   .     S
V17     V19    10.0   .     S
V17     V20    10.0   .     S
V17     V23    10.0   1_455     S
V17     V29    10.0   .     S
V18     V20    10.0   .     S
V18     V19    10.0   1_556     S
V18     V24    10.0   1_455     S
V18     V30    10.0   .     S
V19     V18    10.0   1_554     S
V19     V21    10.0   1_455     S
V19     V10    10.0   1_554     S
V20     V22    10.0   1_455     S
V21     V24    10.0   1_554     S
V21     V23    10.0   .     S
V21     V19    10.0   1_655     S
V21     V27    10.0   .     S
V22     V23    10.0   .     S
V22     V24    10.0   .     S
V22     V20    10.0   1_655     S
V22     V28    10.0   .     S
V23     V17    10.0   1_655     S
V24     V15    10.0   1_556     S
V24     V21    10.0   1_556     S
V24     V18    10.0   1_655     S
V25     V2    10.0   1_554     S
V25     V27    10.0   .     S
V25     V28    10.0   1_554     S
V25     V29    10.0   .     S
V26     V28    10.0   .     S
V26     V27    10.0   .     S
V26     V30    10.0   .     S
V27     V31    10.0   .     S
V28     V25    10.0   1_556     S
V28     V32    10.0   .     S
V29     V32    10.0   1_554     S
V29     V31    10.0   .     S
V30     V31    10.0   .     S
V30     V32    10.0   .     S
V32     V29    10.0   1_556     S
V32     V5    10.0   1_556     S
