data_una
_audit_creation_date              2019-12-31
_audit_creation_method            'Pymatgen'
_symmetry_space_group_name_H-M    'P1'
_symmetry_Int_Tables_number       1
loop_
_symmetry_equiv_pos_as_xyz
  x,y,z
_cell_length_a                    38.9501
_cell_length_b                    38.9501
_cell_length_c                    28.557
_cell_angle_alpha                 90.0
_cell_angle_beta                 90.0
_cell_angle_gamma                 120.0
loop_
_atom_site_label
_atom_site_type_symbol
_atom_site_fract_x
_atom_site_fract_y
_atom_site_fract_z
V1     V     0.6899   0.1304   0.0833
V2     V     0.6899   0.1304   0.5833
V3     V     0.5595   0.8696   0.4167
V4     V     0.5595   0.8696   0.9167
V5     V     0.4405   0.1304   0.1667
V6     V     0.4405   0.1304   0.6667
V7     V     0.3101   0.8696   0.3333
V8     V     0.3101   0.8696   0.8333
V9     V     0.3101   0.4405   0.25
V10     V     0.3101   0.4405   0.75
V11     V     0.4405   0.3101   0.4167
V12     V     0.4405   0.3101   0.9167
V13     V     0.6899   0.5595   0.0
V14     V     0.6899   0.5595   0.5
V15     V     0.5595   0.6899   0.1667
V16     V     0.5595   0.6899   0.6667
V17     V     0.8696   0.3101   0.3333
V18     V     0.8696   0.3101   0.8333
V19     V     0.1304   0.4405   0.0
V20     V     0.1304   0.4405   0.5
V21     V     0.1304   0.6899   0.0833
V22     V     0.1304   0.6899   0.5833
V23     V     0.8696   0.5595   0.25
V24     V     0.8696   0.5595   0.75
loop_
_geom_bond_atom_site_label_1
_geom_bond_atom_site_label_2
_geom_bond_distance
_geom_bond_site_symmetry_2
_ccdc_geom_bond_type
V1     V4    10.0   1_544     S
V1     V5    10.0   .     S
V1     V17    10.0   .     S
V1     V18    10.0   1_554     S
V2     V3    10.0   1_545     S
V2     V6    10.0   .     S
V2     V18    10.0   .     S
V2     V17    10.0   .     S
V3     V2    10.0   1_565     S
V3     V7    10.0   .     S
V3     V16    10.0   .     S
V3     V15    10.0   .     S
V4     V1    10.0   1_566     S
V4     V8    10.0   .     S
V4     V15    10.0   1_556     S
V4     V16    10.0   .     S
V5     V7    10.0   1_545     S
V5     V12    10.0   1_554     S
V5     V11    10.0   .     S
V6     V8    10.0   1_545     S
V6     V11    10.0   .     S
V6     V12    10.0   .     S
V7     V5    10.0   1_565     S
V7     V21    10.0   .     S
V7     V22    10.0   .     S
V8     V6    10.0   1_565     S
V8     V22    10.0   .     S
V8     V21    10.0   1_556     S
V9     V11    10.0   .     S
V9     V15    10.0   .     S
V9     V19    10.0   .     S
V9     V20    10.0   .     S
V10     V12    10.0   .     S
V10     V16    10.0   .     S
V10     V20    10.0   .     S
V10     V19    10.0   1_556     S
V11     V14    10.0   .     S
V12     V13    10.0   1_556     S
V12     V5    10.0   1_556     S
V13     V12    10.0   1_554     S
V13     V15    10.0   .     S
V13     V24    10.0   1_554     S
V13     V23    10.0   .     S
V14     V16    10.0   .     S
V14     V23    10.0   .     S
V14     V24    10.0   .     S
V15     V4    10.0   1_554     S
V17     V20    10.0   1_655     S
V17     V23    10.0   .     S
V18     V19    10.0   1_656     S
V18     V24    10.0   .     S
V18     V1    10.0   1_556     S
V19     V18    10.0   1_454     S
V19     V21    10.0   .     S
V19     V10    10.0   1_554     S
V20     V17    10.0   1_455     S
V20     V22    10.0   .     S
V21     V23    10.0   1_455     S
V21     V8    10.0   1_554     S
V22     V24    10.0   1_455     S
V23     V21    10.0   1_655     S
V24     V22    10.0   1_655     S
V24     V13    10.0   1_556     S
