data_unb
_audit_creation_date              2019-12-31
_audit_creation_method            'Pymatgen'
_symmetry_space_group_name_H-M    'P1'
_symmetry_Int_Tables_number       1
loop_
_symmetry_equiv_pos_as_xyz
  x,y,z
_cell_length_a                    43.5509
_cell_length_b                    43.5509
_cell_length_c                    32.3422
_cell_angle_alpha                 90.0
_cell_angle_beta                 90.0
_cell_angle_gamma                 120.0
loop_
_atom_site_label
_atom_site_type_symbol
_atom_site_fract_x
_atom_site_fract_y
_atom_site_fract_z
V1     V     0.5887   0.7943   0.2917
V2     V     0.5887   0.7943   0.7917
V3     V     0.7447   0.8723   0.0417
V4     V     0.7447   0.8723   0.5417
V5     V     0.461   0.922   0.375
V6     V     0.461   0.922   0.875
V7     V     0.539   0.078   0.125
V8     V     0.539   0.078   0.625
V9     V     0.461   0.539   0.375
V10     V     0.461   0.539   0.875
V11     V     0.539   0.461   0.125
V12     V     0.539   0.461   0.625
V13     V     0.1277   0.8723   0.0417
V14     V     0.1277   0.8723   0.5417
V15     V     0.2057   0.7943   0.2917
V16     V     0.2057   0.7943   0.7917
V17     V     0.2553   0.1277   0.4583
V18     V     0.2553   0.1277   0.9583
V19     V     0.4113   0.2057   0.2083
V20     V     0.4113   0.2057   0.7083
V21     V     0.7943   0.5887   0.2083
V22     V     0.7943   0.5887   0.7083
V23     V     0.8723   0.7447   0.4583
V24     V     0.8723   0.7447   0.9583
V25     V     0.8723   0.1277   0.4583
V26     V     0.8723   0.1277   0.9583
V27     V     0.7943   0.2057   0.2083
V28     V     0.7943   0.2057   0.7083
V29     V     0.922   0.461   0.125
V30     V     0.922   0.461   0.625
V31     V     0.078   0.539   0.375
V32     V     0.078   0.539   0.875
V33     V     0.2057   0.4113   0.2917
V34     V     0.2057   0.4113   0.7917
V35     V     0.1277   0.2553   0.0417
V36     V     0.1277   0.2553   0.5417
loop_
_geom_bond_atom_site_label_1
_geom_bond_atom_site_label_2
_geom_bond_distance
_geom_bond_site_symmetry_2
_ccdc_geom_bond_type
V1     V3    10.0   .     S
V1     V4    10.0   .     S
V1     V5    10.0   .     S
V1     V9    10.0   .     S
V2     V4    10.0   .     S
V2     V3    10.0   1_556     S
V2     V6    10.0   .     S
V2     V10    10.0   .     S
V3     V2    10.0   1_554     S
V3     V26    10.0   1_564     S
V3     V24    10.0   1_554     S
V4     V25    10.0   1_565     S
V4     V23    10.0   .     S
V5     V7    10.0   1_565     S
V5     V8    10.0   1_565     S
V5     V15    10.0   .     S
V6     V8    10.0   1_565     S
V6     V7    10.0   1_566     S
V6     V16    10.0   .     S
V7     V5    10.0   1_545     S
V7     V6    10.0   1_544     S
V7     V19    10.0   .     S
V7     V27    10.0   .     S
V8     V6    10.0   1_545     S
V8     V5    10.0   1_545     S
V8     V20    10.0   .     S
V8     V28    10.0   .     S
V9     V11    10.0   .     S
V9     V12    10.0   .     S
V9     V33    10.0   .     S
V10     V12    10.0   .     S
V10     V11    10.0   1_556     S
V10     V34    10.0   .     S
V11     V10    10.0   1_554     S
V11     V19    10.0   .     S
V11     V21    10.0   .     S
V12     V20    10.0   .     S
V12     V22    10.0   .     S
V13     V15    10.0   .     S
V13     V16    10.0   1_554     S
V13     V18    10.0   1_564     S
V13     V24    10.0   1_454     S
V14     V16    10.0   .     S
V14     V15    10.0   .     S
V14     V17    10.0   1_565     S
V14     V23    10.0   1_455     S
V15     V31    10.0   .     S
V16     V13    10.0   1_556     S
V16     V32    10.0   .     S
V17     V14    10.0   1_545     S
V17     V20    10.0   .     S
V17     V19    10.0   .     S
V17     V36    10.0   .     S
V18     V13    10.0   1_546     S
V18     V19    10.0   1_556     S
V18     V20    10.0   .     S
V18     V35    10.0   1_556     S
V19     V18    10.0   1_554     S
V21     V24    10.0   1_554     S
V21     V23    10.0   .     S
V21     V29    10.0   .     S
V22     V23    10.0   .     S
V22     V24    10.0   .     S
V22     V30    10.0   .     S
V23     V14    10.0   1_655     S
V24     V21    10.0   1_556     S
V24     V13    10.0   1_656     S
V24     V3    10.0   1_556     S
V25     V28    10.0   .     S
V25     V27    10.0   .     S
V25     V4    10.0   1_545     S
V25     V36    10.0   1_655     S
V26     V27    10.0   1_556     S
V26     V28    10.0   .     S
V26     V3    10.0   1_546     S
V26     V35    10.0   1_656     S
V27     V26    10.0   1_554     S
V27     V29    10.0   .     S
V28     V30    10.0   .     S
V29     V31    10.0   1_655     S
V29     V32    10.0   1_654     S
V30     V32    10.0   1_655     S
V30     V31    10.0   1_655     S
V31     V29    10.0   1_455     S
V31     V30    10.0   1_455     S
V31     V33    10.0   .     S
V32     V30    10.0   1_455     S
V32     V29    10.0   1_456     S
V32     V34    10.0   .     S
V33     V36    10.0   .     S
V33     V35    10.0   .     S
V34     V35    10.0   1_556     S
V34     V36    10.0   .     S
V35     V18    10.0   1_554     S
V35     V34    10.0   1_554     S
V35     V26    10.0   1_454     S
V36     V25    10.0   1_455     S
