data_unc
_audit_creation_date              2019-12-31
_audit_creation_method            'Pymatgen'
_symmetry_space_group_name_H-M    'P1'
_symmetry_Int_Tables_number       1
loop_
_symmetry_equiv_pos_as_xyz
  x,y,z
_cell_length_a                    39.8952
_cell_length_b                    39.8952
_cell_length_c                    29.3576
_cell_angle_alpha                 90.0
_cell_angle_beta                 90.0
_cell_angle_gamma                 90.0
loop_
_atom_site_label
_atom_site_type_symbol
_atom_site_fract_x
_atom_site_fract_y
_atom_site_fract_z
V1     V     0.1649   0.0   0.125
V2     V     0.1649   0.0   0.625
V3     V     0.1649   0.5   0.125
V4     V     0.1649   0.5   0.625
V5     V     0.6649   0.0   0.125
V6     V     0.6649   0.0   0.625
V7     V     0.6649   0.5   0.125
V8     V     0.6649   0.5   0.625
V9     V     0.3351   0.0   0.375
V10     V     0.3351   0.0   0.875
V11     V     0.3351   0.5   0.375
V12     V     0.3351   0.5   0.875
V13     V     0.8351   0.0   0.375
V14     V     0.8351   0.0   0.875
V15     V     0.8351   0.5   0.375
V16     V     0.8351   0.5   0.875
V17     V     0.0   0.3351   0.0
V18     V     0.0   0.3351   0.5
V19     V     0.0   0.8351   0.0
V20     V     0.0   0.8351   0.5
V21     V     0.5   0.3351   0.0
V22     V     0.5   0.3351   0.5
V23     V     0.5   0.8351   0.0
V24     V     0.5   0.8351   0.5
V25     V     0.0   0.1649   0.25
V26     V     0.0   0.1649   0.75
V27     V     0.0   0.6649   0.25
V28     V     0.0   0.6649   0.75
V29     V     0.5   0.1649   0.25
V30     V     0.5   0.1649   0.75
V31     V     0.5   0.6649   0.25
V32     V     0.5   0.6649   0.75
loop_
_geom_bond_atom_site_label_1
_geom_bond_atom_site_label_2
_geom_bond_distance
_geom_bond_site_symmetry_2
_ccdc_geom_bond_type
V1     V25    10.0   .     S
V1     V19    10.0   1_545     S
V1     V9    10.0   .     S
V1     V10    10.0   1_554     S
V2     V26    10.0   .     S
V2     V20    10.0   1_545     S
V2     V10    10.0   .     S
V2     V9    10.0   .     S
V3     V27    10.0   .     S
V3     V17    10.0   .     S
V3     V11    10.0   .     S
V3     V12    10.0   1_554     S
V4     V28    10.0   .     S
V4     V18    10.0   .     S
V4     V12    10.0   .     S
V4     V11    10.0   .     S
V5     V29    10.0   .     S
V5     V23    10.0   1_545     S
V5     V13    10.0   .     S
V5     V14    10.0   1_554     S
V6     V30    10.0   .     S
V6     V24    10.0   1_545     S
V6     V14    10.0   .     S
V6     V13    10.0   .     S
V7     V31    10.0   .     S
V7     V21    10.0   .     S
V7     V15    10.0   .     S
V7     V16    10.0   1_554     S
V8     V32    10.0   .     S
V8     V22    10.0   .     S
V8     V16    10.0   .     S
V8     V15    10.0   .     S
V9     V29    10.0   .     S
V9     V24    10.0   1_545     S
V10     V30    10.0   .     S
V10     V23    10.0   1_546     S
V10     V1    10.0   1_556     S
V11     V31    10.0   .     S
V11     V22    10.0   .     S
V12     V32    10.0   .     S
V12     V21    10.0   1_556     S
V12     V3    10.0   1_556     S
V13     V25    10.0   1_655     S
V13     V20    10.0   1_645     S
V14     V26    10.0   1_655     S
V14     V19    10.0   1_646     S
V14     V5    10.0   1_556     S
V15     V27    10.0   1_655     S
V15     V18    10.0   1_655     S
V16     V28    10.0   1_655     S
V16     V17    10.0   1_656     S
V16     V7    10.0   1_556     S
V17     V16    10.0   1_454     S
V17     V26    10.0   1_554     S
V17     V25    10.0   .     S
V18     V15    10.0   1_455     S
V18     V25    10.0   .     S
V18     V26    10.0   .     S
V19     V1    10.0   1_565     S
V19     V14    10.0   1_464     S
V19     V28    10.0   1_554     S
V19     V27    10.0   .     S
V20     V2    10.0   1_565     S
V20     V13    10.0   1_465     S
V20     V27    10.0   .     S
V20     V28    10.0   .     S
V21     V12    10.0   1_554     S
V21     V30    10.0   1_554     S
V21     V29    10.0   .     S
V22     V29    10.0   .     S
V22     V30    10.0   .     S
V23     V5    10.0   1_565     S
V23     V10    10.0   1_564     S
V23     V32    10.0   1_554     S
V23     V31    10.0   .     S
V24     V6    10.0   1_565     S
V24     V9    10.0   1_565     S
V24     V31    10.0   .     S
V24     V32    10.0   .     S
V25     V13    10.0   1_455     S
V26     V14    10.0   1_455     S
V26     V17    10.0   1_556     S
V27     V15    10.0   1_455     S
V28     V16    10.0   1_455     S
V28     V19    10.0   1_556     S
V30     V21    10.0   1_556     S
V32     V23    10.0   1_556     S
