data_ung
_audit_creation_date              2019-12-31
_audit_creation_method            'Pymatgen'
_symmetry_space_group_name_H-M    'P1'
_symmetry_Int_Tables_number       1
loop_
_symmetry_equiv_pos_as_xyz
  x,y,z
_cell_length_a                    53.0253
_cell_length_b                    53.0253
_cell_length_c                    27.0456
_cell_angle_alpha                 90.0
_cell_angle_beta                 90.0
_cell_angle_gamma                 120.0
loop_
_atom_site_label
_atom_site_type_symbol
_atom_site_fract_x
_atom_site_fract_y
_atom_site_fract_z
V1     V     0.2361   0.3333   0.2917
V2     V     0.2361   0.3333   0.7917
V3     V     0.0972   0.3333   0.0417
V4     V     0.0972   0.3333   0.5417
V5     V     0.3333   0.2361   0.4583
V6     V     0.3333   0.2361   0.9583
V7     V     0.3333   0.0972   0.2083
V8     V     0.3333   0.0972   0.7083
V9     V     0.5695   0.5695   0.375
V10     V     0.5695   0.5695   0.875
V11     V     0.4305   0.4305   0.125
V12     V     0.4305   0.4305   0.625
V13     V     0.9028   0.6667   0.4583
V14     V     0.9028   0.6667   0.9583
V15     V     0.7639   0.6667   0.2083
V16     V     0.7639   0.6667   0.7083
V17     V     0.6667   0.9028   0.2917
V18     V     0.6667   0.9028   0.7917
V19     V     0.6667   0.7639   0.0417
V20     V     0.6667   0.7639   0.5417
V21     V     1.0   0.4305   0.375
V22     V     1.0   0.4305   0.875
V23     V     0.0   0.5695   0.125
V24     V     0.0   0.5695   0.625
V25     V     0.9028   0.2361   0.2083
V26     V     0.9028   0.2361   0.7083
V27     V     0.7639   0.0972   0.4583
V28     V     0.7639   0.0972   0.9583
V29     V     0.4305   0.0   0.375
V30     V     0.4305   0.0   0.875
V31     V     0.5695   0.0   0.125
V32     V     0.5695   0.0   0.625
V33     V     0.0972   0.7639   0.2917
V34     V     0.0972   0.7639   0.7917
V35     V     0.2361   0.9028   0.0417
V36     V     0.2361   0.9028   0.5417
loop_
_geom_bond_atom_site_label_1
_geom_bond_atom_site_label_2
_geom_bond_distance
_geom_bond_site_symmetry_2
_ccdc_geom_bond_type
V1     V4    10.0   .     S
V1     V3    10.0   .     S
V1     V5    10.0   .     S
V1     V11    10.0   .     S
V2     V3    10.0   1_556     S
V2     V4    10.0   .     S
V2     V6    10.0   .     S
V2     V12    10.0   .     S
V3     V25    10.0   1_455     S
V3     V22    10.0   1_454     S
V3     V2    10.0   1_554     S
V4     V26    10.0   1_455     S
V4     V21    10.0   1_455     S
V5     V12    10.0   .     S
V5     V7    10.0   .     S
V5     V8    10.0   .     S
V6     V11    10.0   1_556     S
V6     V8    10.0   .     S
V6     V7    10.0   1_556     S
V7     V35    10.0   1_545     S
V7     V6    10.0   1_554     S
V7     V29    10.0   .     S
V8     V36    10.0   1_545     S
V8     V30    10.0   .     S
V9     V11    10.0   .     S
V9     V12    10.0   .     S
V9     V15    10.0   .     S
V9     V20    10.0   .     S
V10     V12    10.0   .     S
V10     V11    10.0   1_556     S
V10     V16    10.0   .     S
V10     V19    10.0   1_556     S
V11     V6    10.0   1_554     S
V11     V10    10.0   1_554     S
V13     V33    10.0   1_655     S
V13     V15    10.0   .     S
V13     V16    10.0   .     S
V13     V24    10.0   1_655     S
V14     V34    10.0   1_655     S
V14     V16    10.0   .     S
V14     V15    10.0   1_556     S
V14     V23    10.0   1_656     S
V15     V14    10.0   1_554     S
V15     V19    10.0   .     S
V16     V20    10.0   .     S
V17     V27    10.0   1_565     S
V17     V20    10.0   .     S
V17     V19    10.0   .     S
V17     V31    10.0   1_565     S
V18     V28    10.0   1_565     S
V18     V19    10.0   1_556     S
V18     V20    10.0   .     S
V18     V32    10.0   1_565     S
V19     V10    10.0   1_554     S
V19     V18    10.0   1_554     S
V21     V4    10.0   1_655     S
V21     V23    10.0   1_655     S
V21     V24    10.0   1_655     S
V21     V25    10.0   .     S
V22     V3    10.0   1_656     S
V22     V24    10.0   1_655     S
V22     V23    10.0   1_656     S
V22     V26    10.0   .     S
V23     V14    10.0   1_454     S
V23     V21    10.0   1_455     S
V23     V22    10.0   1_454     S
V23     V33    10.0   .     S
V24     V13    10.0   1_455     S
V24     V22    10.0   1_455     S
V24     V21    10.0   1_455     S
V24     V34    10.0   .     S
V25     V3    10.0   1_655     S
V25     V27    10.0   .     S
V25     V28    10.0   1_554     S
V26     V4    10.0   1_655     S
V26     V28    10.0   .     S
V26     V27    10.0   .     S
V27     V17    10.0   1_545     S
V27     V32    10.0   .     S
V28     V18    10.0   1_545     S
V28     V25    10.0   1_556     S
V28     V31    10.0   1_556     S
V29     V31    10.0   .     S
V29     V32    10.0   .     S
V29     V36    10.0   1_545     S
V30     V32    10.0   .     S
V30     V31    10.0   1_556     S
V30     V35    10.0   1_546     S
V31     V17    10.0   1_545     S
V31     V28    10.0   1_554     S
V31     V30    10.0   1_554     S
V32     V18    10.0   1_545     S
V33     V13    10.0   1_455     S
V33     V36    10.0   .     S
V33     V35    10.0   .     S
V34     V14    10.0   1_455     S
V34     V35    10.0   1_556     S
V34     V36    10.0   .     S
V35     V7    10.0   1_565     S
V35     V30    10.0   1_564     S
V35     V34    10.0   1_554     S
V36     V8    10.0   1_565     S
V36     V29    10.0   1_565     S
