data_unm
_audit_creation_date              2019-12-31
_audit_creation_method            'Pymatgen'
_symmetry_space_group_name_H-M    'P1'
_symmetry_Int_Tables_number       1
loop_
_symmetry_equiv_pos_as_xyz
  x,y,z
_cell_length_a                    36.6372
_cell_length_b                    36.6372
_cell_length_c                    26.8547
_cell_angle_alpha                 90.0
_cell_angle_beta                 90.0
_cell_angle_gamma                 90.0
loop_
_atom_site_label
_atom_site_type_symbol
_atom_site_fract_x
_atom_site_fract_y
_atom_site_fract_z
V1     V     0.1165   0.3211   0.6762
V2     V     0.1165   0.8211   0.6762
V3     V     0.6165   0.3211   0.6762
V4     V     0.6165   0.8211   0.6762
V5     V     0.1789   0.3835   0.3238
V6     V     0.1789   0.8835   0.3238
V7     V     0.6789   0.3835   0.3238
V8     V     0.6789   0.8835   0.3238
V9     V     0.0711   0.1335   0.1762
V10     V     0.0711   0.6335   0.1762
V11     V     0.5711   0.1335   0.1762
V12     V     0.5711   0.6335   0.1762
V13     V     0.1335   0.0711   0.8238
V14     V     0.1335   0.5711   0.8238
V15     V     0.6335   0.0711   0.8238
V16     V     0.6335   0.5711   0.8238
V17     V     0.3211   0.1165   0.3238
V18     V     0.3211   0.6165   0.3238
V19     V     0.8211   0.1165   0.3238
V20     V     0.8211   0.6165   0.3238
V21     V     0.3835   0.1789   0.6762
V22     V     0.3835   0.6789   0.6762
V23     V     0.8835   0.1789   0.6762
V24     V     0.8835   0.6789   0.6762
V25     V     0.4289   0.3665   0.1762
V26     V     0.4289   0.8665   0.1762
V27     V     0.9289   0.3665   0.1762
V28     V     0.9289   0.8665   0.1762
V29     V     0.3665   0.4289   0.8238
V30     V     0.3665   0.9289   0.8238
V31     V     0.8665   0.4289   0.8238
V32     V     0.8665   0.9289   0.8238
loop_
_geom_bond_atom_site_label_1
_geom_bond_atom_site_label_2
_geom_bond_distance
_geom_bond_site_symmetry_2
_ccdc_geom_bond_type
V1     V5    10.0   .     S
V1     V14    10.0   .     S
V1     V13    10.0   .     S
V1     V23    10.0   1_455     S
V2     V6    10.0   .     S
V2     V13    10.0   1_565     S
V2     V14    10.0   .     S
V2     V24    10.0   1_455     S
V3     V7    10.0   .     S
V3     V16    10.0   .     S
V3     V15    10.0   .     S
V3     V21    10.0   .     S
V4     V8    10.0   .     S
V4     V15    10.0   1_565     S
V4     V16    10.0   .     S
V4     V22    10.0   .     S
V5     V25    10.0   .     S
V5     V27    10.0   1_455     S
V5     V18    10.0   .     S
V6     V26    10.0   .     S
V6     V28    10.0   1_455     S
V6     V17    10.0   1_565     S
V7     V27    10.0   .     S
V7     V25    10.0   .     S
V7     V20    10.0   .     S
V8     V28    10.0   .     S
V8     V26    10.0   .     S
V8     V19    10.0   1_565     S
V9     V13    10.0   1_554     S
V9     V17    10.0   .     S
V9     V19    10.0   1_455     S
V9     V27    10.0   1_455     S
V10     V14    10.0   1_554     S
V10     V18    10.0   .     S
V10     V20    10.0   1_455     S
V10     V28    10.0   1_455     S
V11     V15    10.0   1_554     S
V11     V19    10.0   .     S
V11     V17    10.0   .     S
V11     V25    10.0   .     S
V12     V16    10.0   1_554     S
V12     V20    10.0   .     S
V12     V18    10.0   .     S
V12     V26    10.0   .     S
V13     V2    10.0   1_545     S
V13     V9    10.0   1_556     S
V13     V30    10.0   1_545     S
V14     V10    10.0   1_556     S
V14     V29    10.0   .     S
V15     V4    10.0   1_545     S
V15     V11    10.0   1_556     S
V15     V32    10.0   1_545     S
V16     V12    10.0   1_556     S
V16     V31    10.0   .     S
V17     V21    10.0   .     S
V17     V6    10.0   1_545     S
V18     V22    10.0   .     S
V19     V23    10.0   .     S
V19     V9    10.0   1_655     S
V19     V8    10.0   1_545     S
V20     V24    10.0   .     S
V20     V10    10.0   1_655     S
V21     V29    10.0   .     S
V21     V30    10.0   1_545     S
V22     V30    10.0   .     S
V22     V29    10.0   .     S
V23     V31    10.0   .     S
V23     V32    10.0   1_545     S
V23     V1    10.0   1_655     S
V24     V32    10.0   .     S
V24     V31    10.0   .     S
V24     V2    10.0   1_655     S
V25     V29    10.0   1_554     S
V26     V30    10.0   1_554     S
V27     V31    10.0   1_554     S
V27     V5    10.0   1_655     S
V27     V9    10.0   1_655     S
V28     V32    10.0   1_554     S
V28     V6    10.0   1_655     S
V28     V10    10.0   1_655     S
V29     V25    10.0   1_556     S
V30     V26    10.0   1_556     S
V30     V21    10.0   1_565     S
V30     V13    10.0   1_565     S
V31     V27    10.0   1_556     S
V32     V28    10.0   1_556     S
V32     V23    10.0   1_565     S
V32     V15    10.0   1_565     S
