data_uoa
_audit_creation_date              2019-12-31
_audit_creation_method            'Pymatgen'
_symmetry_space_group_name_H-M    'P1'
_symmetry_Int_Tables_number       1
loop_
_symmetry_equiv_pos_as_xyz
  x,y,z
_cell_length_a                    53.1766
_cell_length_b                    53.1766
_cell_length_c                    36.8338
_cell_angle_alpha                 90.0
_cell_angle_beta                 90.0
_cell_angle_gamma                 90.0
loop_
_atom_site_label
_atom_site_type_symbol
_atom_site_fract_x
_atom_site_fract_y
_atom_site_fract_z
V1     V     0.8331   0.7133   0.1601
V2     V     0.8331   0.7133   0.6601
V3     V     0.6669   0.7867   0.0899
V4     V     0.6669   0.7867   0.5899
V5     V     0.8331   0.7867   0.4101
V6     V     0.8331   0.7867   0.9101
V7     V     0.6669   0.7133   0.3399
V8     V     0.6669   0.7133   0.8399
V9     V     0.5367   0.9169   0.0351
V10     V     0.5367   0.9169   0.5351
V11     V     0.4633   0.0831   0.4649
V12     V     0.4633   0.0831   0.9649
V13     V     0.4633   0.9169   0.2851
V14     V     0.4633   0.9169   0.7851
V15     V     0.5367   0.0831   0.2149
V16     V     0.5367   0.0831   0.7149
V17     V     0.6669   0.2867   0.4101
V18     V     0.6669   0.2867   0.9101
V19     V     0.8331   0.2133   0.3399
V20     V     0.8331   0.2133   0.8399
V21     V     0.8331   0.2867   0.0899
V22     V     0.8331   0.2867   0.5899
V23     V     0.6669   0.2133   0.1601
V24     V     0.6669   0.2133   0.6601
V25     V     0.1669   0.7867   0.1601
V26     V     0.1669   0.7867   0.6601
V27     V     0.3331   0.7133   0.0899
V28     V     0.3331   0.7133   0.5899
V29     V     0.1669   0.7133   0.4101
V30     V     0.1669   0.7133   0.9101
V31     V     0.3331   0.7867   0.3399
V32     V     0.3331   0.7867   0.8399
V33     V     0.0367   0.0831   0.0351
V34     V     0.0367   0.0831   0.5351
V35     V     0.9633   0.9169   0.4649
V36     V     0.9633   0.9169   0.9649
V37     V     0.0367   0.9169   0.2149
V38     V     0.0367   0.9169   0.7149
V39     V     0.9633   0.0831   0.2851
V40     V     0.9633   0.0831   0.7851
V41     V     0.4633   0.5831   0.0351
V42     V     0.4633   0.5831   0.5351
V43     V     0.5367   0.4169   0.4649
V44     V     0.5367   0.4169   0.9649
V45     V     0.5367   0.5831   0.2851
V46     V     0.5367   0.5831   0.7851
V47     V     0.4633   0.4169   0.2149
V48     V     0.4633   0.4169   0.7149
V49     V     0.3331   0.2133   0.4101
V50     V     0.3331   0.2133   0.9101
V51     V     0.1669   0.2867   0.3399
V52     V     0.1669   0.2867   0.8399
V53     V     0.1669   0.2133   0.0899
V54     V     0.1669   0.2133   0.5899
V55     V     0.3331   0.2867   0.1601
V56     V     0.3331   0.2867   0.6601
V57     V     0.9633   0.5831   0.2149
V58     V     0.9633   0.5831   0.7149
V59     V     0.0367   0.4169   0.2851
V60     V     0.0367   0.4169   0.7851
V61     V     0.0367   0.5831   0.4649
V62     V     0.0367   0.5831   0.9649
V63     V     0.9633   0.4169   0.0351
V64     V     0.9633   0.4169   0.5351
loop_
_geom_bond_atom_site_label_1
_geom_bond_atom_site_label_2
_geom_bond_distance
_geom_bond_site_symmetry_2
_ccdc_geom_bond_type
V1     V3    10.0   .     S
V1     V6    10.0   1_554     S
V1     V5    10.0   .     S
V1     V57    10.0   .     S
V2     V4    10.0   .     S
V2     V5    10.0   .     S
V2     V6    10.0   .     S
V2     V58    10.0   .     S
V3     V7    10.0   .     S
V3     V8    10.0   1_554     S
V3     V9    10.0   .     S
V4     V8    10.0   .     S
V4     V7    10.0   .     S
V4     V10    10.0   .     S
V5     V7    10.0   .     S
V5     V35    10.0   .     S
V6     V8    10.0   .     S
V6     V1    10.0   1_556     S
V6     V36    10.0   .     S
V7     V45    10.0   .     S
V8     V3    10.0   1_556     S
V8     V46    10.0   .     S
V9     V12    10.0   1_564     S
V9     V14    10.0   1_554     S
V9     V13    10.0   .     S
V10     V11    10.0   1_565     S
V10     V13    10.0   .     S
V10     V14    10.0   .     S
V11     V10    10.0   1_545     S
V11     V15    10.0   .     S
V11     V16    10.0   .     S
V11     V49    10.0   .     S
V12     V9    10.0   1_546     S
V12     V16    10.0   .     S
V12     V15    10.0   1_556     S
V12     V50    10.0   .     S
V13     V15    10.0   1_565     S
V13     V31    10.0   .     S
V14     V16    10.0   1_565     S
V14     V9    10.0   1_556     S
V14     V32    10.0   .     S
V15     V13    10.0   1_545     S
V15     V12    10.0   1_554     S
V15     V23    10.0   .     S
V16     V14    10.0   1_545     S
V16     V24    10.0   .     S
V17     V19    10.0   .     S
V17     V24    10.0   .     S
V17     V23    10.0   .     S
V17     V43    10.0   .     S
V18     V20    10.0   .     S
V18     V23    10.0   1_556     S
V18     V24    10.0   .     S
V18     V44    10.0   .     S
V19     V21    10.0   .     S
V19     V22    10.0   .     S
V19     V39    10.0   .     S
V20     V22    10.0   .     S
V20     V21    10.0   1_556     S
V20     V40    10.0   .     S
V21     V23    10.0   .     S
V21     V20    10.0   1_554     S
V21     V63    10.0   .     S
V22     V24    10.0   .     S
V22     V64    10.0   .     S
V23     V18    10.0   1_554     S
V25     V27    10.0   .     S
V25     V30    10.0   1_554     S
V25     V29    10.0   .     S
V25     V37    10.0   .     S
V26     V28    10.0   .     S
V26     V29    10.0   .     S
V26     V30    10.0   .     S
V26     V38    10.0   .     S
V27     V32    10.0   1_554     S
V27     V31    10.0   .     S
V27     V41    10.0   .     S
V28     V31    10.0   .     S
V28     V32    10.0   .     S
V28     V42    10.0   .     S
V29     V31    10.0   .     S
V29     V61    10.0   .     S
V30     V32    10.0   .     S
V30     V25    10.0   1_556     S
V30     V62    10.0   .     S
V32     V27    10.0   1_556     S
V33     V36    10.0   1_444     S
V33     V40    10.0   1_454     S
V33     V39    10.0   1_455     S
V33     V53    10.0   .     S
V34     V35    10.0   1_445     S
V34     V39    10.0   1_455     S
V34     V40    10.0   1_455     S
V34     V54    10.0   .     S
V35     V34    10.0   1_665     S
V35     V37    10.0   1_655     S
V35     V38    10.0   1_655     S
V36     V33    10.0   1_666     S
V36     V38    10.0   1_655     S
V36     V37    10.0   1_656     S
V37     V39    10.0   1_465     S
V37     V35    10.0   1_455     S
V37     V36    10.0   1_454     S
V38     V40    10.0   1_465     S
V38     V36    10.0   1_455     S
V38     V35    10.0   1_455     S
V39     V34    10.0   1_655     S
V39     V37    10.0   1_645     S
V39     V33    10.0   1_655     S
V40     V33    10.0   1_656     S
V40     V38    10.0   1_645     S
V40     V34    10.0   1_655     S
V41     V44    10.0   1_554     S
V41     V46    10.0   1_554     S
V41     V45    10.0   .     S
V42     V43    10.0   .     S
V42     V45    10.0   .     S
V42     V46    10.0   .     S
V43     V48    10.0   .     S
V43     V47    10.0   .     S
V44     V41    10.0   1_556     S
V44     V47    10.0   1_556     S
V44     V48    10.0   .     S
V45     V47    10.0   .     S
V46     V48    10.0   .     S
V46     V41    10.0   1_556     S
V47     V44    10.0   1_554     S
V47     V55    10.0   .     S
V48     V56    10.0   .     S
V49     V51    10.0   .     S
V49     V56    10.0   .     S
V49     V55    10.0   .     S
V50     V52    10.0   .     S
V50     V55    10.0   1_556     S
V50     V56    10.0   .     S
V51     V53    10.0   .     S
V51     V54    10.0   .     S
V51     V59    10.0   .     S
V52     V54    10.0   .     S
V52     V53    10.0   1_556     S
V52     V60    10.0   .     S
V53     V55    10.0   .     S
V53     V52    10.0   1_554     S
V54     V56    10.0   .     S
V55     V50    10.0   1_554     S
V57     V59    10.0   1_655     S
V57     V61    10.0   1_655     S
V57     V62    10.0   1_654     S
V58     V60    10.0   1_655     S
V58     V62    10.0   1_655     S
V58     V61    10.0   1_655     S
V59     V57    10.0   1_455     S
V59     V64    10.0   1_455     S
V59     V63    10.0   1_455     S
V60     V58    10.0   1_455     S
V60     V63    10.0   1_456     S
V60     V64    10.0   1_455     S
V61     V64    10.0   1_455     S
V61     V57    10.0   1_455     S
V61     V58    10.0   1_455     S
V62     V63    10.0   1_456     S
V62     V58    10.0   1_455     S
V62     V57    10.0   1_456     S
V63     V62    10.0   1_654     S
V63     V60    10.0   1_654     S
V63     V59    10.0   1_655     S
V64     V61    10.0   1_655     S
V64     V59    10.0   1_655     S
V64     V60    10.0   1_655     S
