data_uob
_audit_creation_date              2019-12-31
_audit_creation_method            'Pymatgen'
_symmetry_space_group_name_H-M    'P1'
_symmetry_Int_Tables_number       1
loop_
_symmetry_equiv_pos_as_xyz
  x,y,z
_cell_length_a                    36.7175
_cell_length_b                    36.7175
_cell_length_c                    36.0698
_cell_angle_alpha                 90.0
_cell_angle_beta                 90.0
_cell_angle_gamma                 90.0
loop_
_atom_site_label
_atom_site_type_symbol
_atom_site_fract_x
_atom_site_fract_y
_atom_site_fract_z
V1     V     0.6284   0.9548   0.25
V2     V     0.6284   0.9548   0.75
V3     V     0.5452   0.8716   0.0
V4     V     0.5452   0.8716   0.5
V5     V     0.3716   0.0452   0.25
V6     V     0.3716   0.0452   0.75
V7     V     0.4548   0.1284   0.0
V8     V     0.4548   0.1284   0.5
V9     V     0.9548   0.8716   0.375
V10     V     0.9548   0.8716   0.875
V11     V     0.8716   0.9548   0.125
V12     V     0.8716   0.9548   0.625
V13     V     0.1284   0.0452   0.125
V14     V     0.1284   0.0452   0.625
V15     V     0.0452   0.1284   0.375
V16     V     0.0452   0.1284   0.875
V17     V     0.3716   0.4548   0.375
V18     V     0.3716   0.4548   0.875
V19     V     0.4548   0.3716   0.125
V20     V     0.4548   0.3716   0.625
V21     V     0.6284   0.5452   0.375
V22     V     0.6284   0.5452   0.875
V23     V     0.5452   0.6284   0.125
V24     V     0.5452   0.6284   0.625
V25     V     0.0452   0.3716   0.25
V26     V     0.0452   0.3716   0.75
V27     V     0.1284   0.4548   0.0
V28     V     0.1284   0.4548   0.5
V29     V     0.9548   0.6284   0.25
V30     V     0.9548   0.6284   0.75
V31     V     0.8716   0.5452   0.0
V32     V     0.8716   0.5452   0.5
loop_
_geom_bond_atom_site_label_1
_geom_bond_atom_site_label_2
_geom_bond_distance
_geom_bond_site_symmetry_2
_ccdc_geom_bond_type
V1     V3    10.0   .     S
V1     V4    10.0   .     S
V1     V5    10.0   1_565     S
V1     V11    10.0   .     S
V2     V4    10.0   .     S
V2     V3    10.0   1_556     S
V2     V6    10.0   1_565     S
V2     V12    10.0   .     S
V3     V2    10.0   1_554     S
V3     V7    10.0   1_565     S
V3     V23    10.0   .     S
V4     V8    10.0   1_565     S
V4     V24    10.0   .     S
V5     V1    10.0   1_545     S
V5     V7    10.0   .     S
V5     V8    10.0   .     S
V5     V13    10.0   .     S
V6     V2    10.0   1_545     S
V6     V8    10.0   .     S
V6     V7    10.0   1_556     S
V6     V14    10.0   .     S
V7     V6    10.0   1_554     S
V7     V3    10.0   1_545     S
V7     V19    10.0   .     S
V8     V4    10.0   1_545     S
V8     V20    10.0   .     S
V9     V11    10.0   .     S
V9     V12    10.0   .     S
V9     V15    10.0   1_665     S
V9     V29    10.0   .     S
V10     V12    10.0   .     S
V10     V11    10.0   1_556     S
V10     V16    10.0   1_665     S
V10     V30    10.0   .     S
V11     V10    10.0   1_554     S
V11     V13    10.0   1_665     S
V12     V14    10.0   1_665     S
V13     V15    10.0   .     S
V13     V16    10.0   1_554     S
V13     V11    10.0   1_445     S
V14     V16    10.0   .     S
V14     V15    10.0   .     S
V14     V12    10.0   1_445     S
V15     V9    10.0   1_445     S
V15     V25    10.0   .     S
V16     V13    10.0   1_556     S
V16     V10    10.0   1_445     S
V16     V26    10.0   .     S
V17     V20    10.0   .     S
V17     V19    10.0   .     S
V17     V21    10.0   .     S
V17     V28    10.0   .     S
V18     V19    10.0   1_556     S
V18     V20    10.0   .     S
V18     V22    10.0   .     S
V18     V27    10.0   1_556     S
V19     V18    10.0   1_554     S
V19     V23    10.0   .     S
V20     V24    10.0   .     S
V21     V24    10.0   .     S
V21     V23    10.0   .     S
V21     V32    10.0   .     S
V22     V23    10.0   1_556     S
V22     V24    10.0   .     S
V22     V31    10.0   1_556     S
V23     V22    10.0   1_554     S
V25     V28    10.0   .     S
V25     V27    10.0   .     S
V25     V29    10.0   1_455     S
V26     V27    10.0   1_556     S
V26     V28    10.0   .     S
V26     V30    10.0   1_455     S
V27     V26    10.0   1_554     S
V27     V31    10.0   1_455     S
V27     V18    10.0   1_554     S
V28     V32    10.0   1_455     S
V29     V32    10.0   .     S
V29     V31    10.0   .     S
V29     V25    10.0   1_655     S
V30     V31    10.0   1_556     S
V30     V32    10.0   .     S
V30     V26    10.0   1_655     S
V31     V30    10.0   1_554     S
V31     V27    10.0   1_655     S
V31     V22    10.0   1_554     S
V32     V28    10.0   1_655     S
