data_uoc
_audit_creation_date              2019-12-31
_audit_creation_method            'Pymatgen'
_symmetry_space_group_name_H-M    'P1'
_symmetry_Int_Tables_number       1
loop_
_symmetry_equiv_pos_as_xyz
  x,y,z
_cell_length_a                    38.528
_cell_length_b                    38.528
_cell_length_c                    34.8459
_cell_angle_alpha                 90.0
_cell_angle_beta                 90.0
_cell_angle_gamma                 90.0
loop_
_atom_site_label
_atom_site_type_symbol
_atom_site_fract_x
_atom_site_fract_y
_atom_site_fract_z
V1     V     0.2849   0.375   0.625
V2     V     0.2849   0.875   0.625
V3     V     0.7849   0.375   0.625
V4     V     0.7849   0.875   0.625
V5     V     0.2151   0.125   0.625
V6     V     0.2151   0.625   0.625
V7     V     0.7151   0.125   0.625
V8     V     0.7151   0.625   0.625
V9     V     0.375   0.2849   0.375
V10     V     0.375   0.7849   0.375
V11     V     0.875   0.2849   0.375
V12     V     0.875   0.7849   0.375
V13     V     0.125   0.2151   0.375
V14     V     0.125   0.7151   0.375
V15     V     0.625   0.2151   0.375
V16     V     0.625   0.7151   0.375
V17     V     0.375   0.4651   0.875
V18     V     0.375   0.9651   0.875
V19     V     0.875   0.4651   0.875
V20     V     0.875   0.9651   0.875
V21     V     0.125   0.0349   0.875
V22     V     0.125   0.5349   0.875
V23     V     0.625   0.0349   0.875
V24     V     0.625   0.5349   0.875
V25     V     0.0349   0.125   0.125
V26     V     0.0349   0.625   0.125
V27     V     0.5349   0.125   0.125
V28     V     0.5349   0.625   0.125
V29     V     0.4651   0.375   0.125
V30     V     0.4651   0.875   0.125
V31     V     0.9651   0.375   0.125
V32     V     0.9651   0.875   0.125
loop_
_geom_bond_atom_site_label_1
_geom_bond_atom_site_label_2
_geom_bond_distance
_geom_bond_site_symmetry_2
_ccdc_geom_bond_type
V1     V6    10.0   .     S
V1     V5    10.0   .     S
V1     V17    10.0   .     S
V1     V9    10.0   .     S
V2     V5    10.0   1_565     S
V2     V6    10.0   .     S
V2     V18    10.0   .     S
V2     V10    10.0   .     S
V3     V8    10.0   .     S
V3     V7    10.0   .     S
V3     V19    10.0   .     S
V3     V11    10.0   .     S
V4     V7    10.0   1_565     S
V4     V8    10.0   .     S
V4     V20    10.0   .     S
V4     V12    10.0   .     S
V5     V2    10.0   1_545     S
V5     V21    10.0   .     S
V5     V13    10.0   .     S
V6     V22    10.0   .     S
V6     V14    10.0   .     S
V7     V4    10.0   1_545     S
V7     V23    10.0   .     S
V7     V15    10.0   .     S
V8     V24    10.0   .     S
V8     V16    10.0   .     S
V9     V15    10.0   .     S
V9     V13    10.0   .     S
V9     V29    10.0   .     S
V10     V16    10.0   .     S
V10     V14    10.0   .     S
V10     V30    10.0   .     S
V11     V13    10.0   1_655     S
V11     V15    10.0   .     S
V11     V31    10.0   .     S
V12     V14    10.0   1_655     S
V12     V16    10.0   .     S
V12     V32    10.0   .     S
V13     V11    10.0   1_455     S
V13     V25    10.0   .     S
V14     V12    10.0   1_455     S
V14     V26    10.0   .     S
V15     V27    10.0   .     S
V16     V28    10.0   .     S
V17     V24    10.0   .     S
V17     V22    10.0   .     S
V17     V29    10.0   1_556     S
V18     V23    10.0   1_565     S
V18     V21    10.0   1_565     S
V18     V30    10.0   1_556     S
V19     V22    10.0   1_655     S
V19     V24    10.0   .     S
V19     V31    10.0   1_556     S
V20     V21    10.0   1_665     S
V20     V23    10.0   1_565     S
V20     V32    10.0   1_556     S
V21     V20    10.0   1_445     S
V21     V18    10.0   1_545     S
V21     V25    10.0   1_556     S
V22     V19    10.0   1_455     S
V22     V26    10.0   1_556     S
V23     V18    10.0   1_545     S
V23     V20    10.0   1_545     S
V23     V27    10.0   1_556     S
V24     V28    10.0   1_556     S
V25     V32    10.0   1_445     S
V25     V31    10.0   1_455     S
V25     V21    10.0   1_554     S
V26     V31    10.0   1_455     S
V26     V32    10.0   1_455     S
V26     V22    10.0   1_554     S
V27     V30    10.0   1_545     S
V27     V29    10.0   .     S
V27     V23    10.0   1_554     S
V28     V29    10.0   .     S
V28     V30    10.0   .     S
V28     V24    10.0   1_554     S
V29     V17    10.0   1_554     S
V30     V27    10.0   1_565     S
V30     V18    10.0   1_554     S
V31     V26    10.0   1_655     S
V31     V25    10.0   1_655     S
V31     V19    10.0   1_554     S
V32     V25    10.0   1_665     S
V32     V26    10.0   1_655     S
V32     V20    10.0   1_554     S
