data_uod
_audit_creation_date              2019-12-31
_audit_creation_method            'Pymatgen'
_symmetry_space_group_name_H-M    'P1'
_symmetry_Int_Tables_number       1
loop_
_symmetry_equiv_pos_as_xyz
  x,y,z
_cell_length_a                    57.8073
_cell_length_b                    35.3018
_cell_length_c                    46.7723
_cell_angle_alpha                 90.0
_cell_angle_beta                 90.0
_cell_angle_gamma                 90.0
loop_
_atom_site_label
_atom_site_type_symbol
_atom_site_fract_x
_atom_site_fract_y
_atom_site_fract_z
V1     V     0.4513   0.0625   0.9253
V2     V     0.4513   0.5625   0.9253
V3     V     0.5487   0.4375   0.0747
V4     V     0.5487   0.9375   0.0747
V5     V     0.4513   0.3125   0.8247
V6     V     0.4513   0.8125   0.8247
V7     V     0.5487   0.4375   0.6753
V8     V     0.5487   0.9375   0.6753
V9     V     0.4513   0.3125   0.4253
V10     V     0.4513   0.8125   0.4253
V11     V     0.5487   0.1875   0.5747
V12     V     0.5487   0.6875   0.5747
V13     V     0.4513   0.0625   0.3247
V14     V     0.4513   0.5625   0.3247
V15     V     0.5487   0.1875   0.1753
V16     V     0.5487   0.6875   0.1753
V17     V     0.0487   0.4375   0.5747
V18     V     0.0487   0.9375   0.5747
V19     V     0.9513   0.0625   0.4253
V20     V     0.9513   0.5625   0.4253
V21     V     0.9513   0.3125   0.9253
V22     V     0.9513   0.8125   0.9253
V23     V     0.0487   0.1875   0.0747
V24     V     0.0487   0.6875   0.0747
V25     V     0.0487   0.4375   0.1753
V26     V     0.0487   0.9375   0.1753
V27     V     0.9513   0.3125   0.3247
V28     V     0.9513   0.8125   0.3247
V29     V     0.9513   0.0625   0.8247
V30     V     0.9513   0.5625   0.8247
V31     V     0.0487   0.1875   0.6753
V32     V     0.0487   0.6875   0.6753
V33     V     0.7987   0.3125   0.8247
V34     V     0.7987   0.8125   0.8247
V35     V     0.7013   0.1875   0.6753
V36     V     0.7013   0.6875   0.6753
V37     V     0.7987   0.3125   0.4253
V38     V     0.7987   0.8125   0.4253
V39     V     0.7013   0.4375   0.5747
V40     V     0.7013   0.9375   0.5747
V41     V     0.7987   0.0625   0.9253
V42     V     0.7987   0.5625   0.9253
V43     V     0.7013   0.1875   0.0747
V44     V     0.7013   0.6875   0.0747
V45     V     0.7013   0.4375   0.1753
V46     V     0.7013   0.9375   0.1753
V47     V     0.7987   0.0625   0.3247
V48     V     0.7987   0.5625   0.3247
V49     V     0.2987   0.0625   0.8247
V50     V     0.2987   0.5625   0.8247
V51     V     0.2013   0.4375   0.6753
V52     V     0.2013   0.9375   0.6753
V53     V     0.2987   0.3125   0.9253
V54     V     0.2987   0.8125   0.9253
V55     V     0.2013   0.4375   0.0747
V56     V     0.2013   0.9375   0.0747
V57     V     0.2987   0.0625   0.4253
V58     V     0.2987   0.5625   0.4253
V59     V     0.2013   0.1875   0.5747
V60     V     0.2013   0.6875   0.5747
V61     V     0.2013   0.1875   0.1753
V62     V     0.2013   0.6875   0.1753
V63     V     0.2987   0.3125   0.3247
V64     V     0.2987   0.8125   0.3247
loop_
_geom_bond_atom_site_label_1
_geom_bond_atom_site_label_2
_geom_bond_distance
_geom_bond_site_symmetry_2
_ccdc_geom_bond_type
V1     V4    10.0   1_546     S
V1     V5    10.0   .     S
V1     V6    10.0   1_545     S
V1     V49    10.001   .     S
V2     V3    10.0   1_556     S
V2     V6    10.0   .     S
V2     V5    10.0   .     S
V2     V50    10.001   .     S
V3     V2    10.0   1_554     S
V3     V15    10.0   .     S
V3     V16    10.0   .     S
V3     V45    10.001   .     S
V4     V1    10.0   1_564     S
V4     V16    10.0   .     S
V4     V15    10.0   1_565     S
V4     V46    10.001   .     S
V5     V7    10.0   .     S
V5     V53    10.001   .     S
V6     V8    10.0   .     S
V6     V1    10.0   1_565     S
V6     V54    10.001   .     S
V7     V11    10.0   .     S
V7     V12    10.0   .     S
V7     V39    10.001   .     S
V8     V12    10.0   .     S
V8     V11    10.0   1_565     S
V8     V40    10.001   .     S
V9     V11    10.0   .     S
V9     V14    10.0   .     S
V9     V13    10.0   .     S
V9     V63    10.001   .     S
V10     V12    10.0   .     S
V10     V13    10.0   1_565     S
V10     V14    10.0   .     S
V10     V64    10.001   .     S
V11     V8    10.0   1_545     S
V11     V35    10.001   .     S
V12     V36    10.001   .     S
V13     V10    10.0   1_545     S
V13     V15    10.0   .     S
V13     V57    10.001   .     S
V14     V16    10.0   .     S
V14     V58    10.001   .     S
V15     V4    10.0   1_545     S
V15     V43    10.001   .     S
V16     V44    10.001   .     S
V17     V20    10.0   1_455     S
V17     V31    10.0   .     S
V17     V32    10.0   .     S
V17     V51    10.001   .     S
V18     V19    10.0   1_465     S
V18     V32    10.0   .     S
V18     V31    10.0   1_565     S
V18     V52    10.001   .     S
V19     V18    10.0   1_645     S
V19     V28    10.0   1_545     S
V19     V27    10.0   .     S
V19     V47    10.001   .     S
V20     V17    10.0   1_655     S
V20     V27    10.0   .     S
V20     V28    10.0   .     S
V20     V48    10.001   .     S
V21     V23    10.0   1_656     S
V21     V30    10.0   .     S
V21     V29    10.0   .     S
V21     V33    10.001   .     S
V22     V24    10.0   1_656     S
V22     V29    10.0   1_565     S
V22     V30    10.0   .     S
V22     V34    10.001   .     S
V23     V21    10.0   1_454     S
V23     V25    10.0   .     S
V23     V26    10.0   1_545     S
V23     V61    10.001   .     S
V24     V22    10.0   1_454     S
V24     V26    10.0   .     S
V24     V25    10.0   .     S
V24     V62    10.001   .     S
V25     V27    10.0   1_455     S
V25     V55    10.001   .     S
V26     V28    10.0   1_455     S
V26     V23    10.0   1_565     S
V26     V56    10.001   .     S
V27     V25    10.0   1_655     S
V27     V37    10.001   .     S
V28     V26    10.0   1_655     S
V28     V19    10.0   1_565     S
V28     V38    10.001   .     S
V29     V22    10.0   1_545     S
V29     V31    10.0   1_655     S
V29     V41    10.001   .     S
V30     V32    10.0   1_655     S
V30     V42    10.001   .     S
V31     V29    10.0   1_455     S
V31     V18    10.0   1_545     S
V31     V59    10.001   .     S
V32     V30    10.0   1_455     S
V32     V60    10.001   .     S
V33     V35    10.0   .     S
V33     V41    10.0   .     S
V33     V42    10.0   .     S
V34     V36    10.0   .     S
V34     V42    10.0   .     S
V34     V41    10.0   1_565     S
V35     V40    10.0   1_545     S
V35     V39    10.0   .     S
V36     V39    10.0   .     S
V36     V40    10.0   .     S
V37     V39    10.0   .     S
V37     V48    10.0   .     S
V37     V47    10.0   .     S
V38     V40    10.0   .     S
V38     V47    10.0   1_565     S
V38     V48    10.0   .     S
V40     V35    10.0   1_565     S
V41     V43    10.0   1_556     S
V41     V34    10.0   1_545     S
V42     V44    10.0   1_556     S
V43     V41    10.0   1_554     S
V43     V45    10.0   .     S
V43     V46    10.0   1_545     S
V44     V42    10.0   1_554     S
V44     V46    10.0   .     S
V44     V45    10.0   .     S
V45     V48    10.0   .     S
V46     V47    10.0   1_565     S
V46     V43    10.0   1_565     S
V47     V38    10.0   1_545     S
V47     V46    10.0   1_545     S
V49     V52    10.0   1_545     S
V49     V54    10.0   1_545     S
V49     V53    10.0   .     S
V50     V51    10.0   .     S
V50     V53    10.0   .     S
V50     V54    10.0   .     S
V51     V59    10.0   .     S
V51     V60    10.0   .     S
V52     V49    10.0   1_565     S
V52     V60    10.0   .     S
V52     V59    10.0   1_565     S
V53     V55    10.0   1_556     S
V54     V56    10.0   1_556     S
V54     V49    10.0   1_565     S
V55     V53    10.0   1_554     S
V55     V61    10.0   .     S
V55     V62    10.0   .     S
V56     V54    10.0   1_554     S
V56     V62    10.0   .     S
V56     V61    10.0   1_565     S
V57     V59    10.0   .     S
V57     V64    10.0   1_545     S
V57     V63    10.0   .     S
V58     V60    10.0   .     S
V58     V63    10.0   .     S
V58     V64    10.0   .     S
V59     V52    10.0   1_545     S
V61     V63    10.0   .     S
V61     V56    10.0   1_545     S
V62     V64    10.0   .     S
V64     V57    10.0   1_565     S
