data_uoe
_audit_creation_date              2019-12-31
_audit_creation_method            'Pymatgen'
_symmetry_space_group_name_H-M    'P1'
_symmetry_Int_Tables_number       1
loop_
_symmetry_equiv_pos_as_xyz
  x,y,z
_cell_length_a                    51.9229
_cell_length_b                    51.9229
_cell_length_c                    36.0746
_cell_angle_alpha                 90.0
_cell_angle_beta                 90.0
_cell_angle_gamma                 90.0
loop_
_atom_site_label
_atom_site_type_symbol
_atom_site_fract_x
_atom_site_fract_y
_atom_site_fract_z
V1     V     0.7916   0.6632   0.375
V2     V     0.7916   0.6632   0.875
V3     V     0.9132   0.5416   0.0
V4     V     0.9132   0.5416   0.5
V5     V     0.7084   0.6632   0.125
V6     V     0.7084   0.6632   0.625
V7     V     0.5869   0.5416   0.0
V8     V     0.5869   0.5416   0.5
V9     V     0.7084   0.3369   0.125
V10     V     0.7084   0.3369   0.625
V11     V     0.5869   0.4584   0.25
V12     V     0.5869   0.4584   0.75
V13     V     0.7916   0.3369   0.375
V14     V     0.7916   0.3369   0.875
V15     V     0.9132   0.4584   0.25
V16     V     0.9132   0.4584   0.75
V17     V     0.7916   0.1632   0.125
V18     V     0.7916   0.1632   0.625
V19     V     0.9132   0.0416   0.0
V20     V     0.9132   0.0416   0.5
V21     V     0.7084   0.1632   0.375
V22     V     0.7084   0.1632   0.875
V23     V     0.5869   0.0416   0.0
V24     V     0.5869   0.0416   0.5
V25     V     0.7916   0.8369   0.125
V26     V     0.7916   0.8369   0.625
V27     V     0.9132   0.9584   0.25
V28     V     0.9132   0.9584   0.75
V29     V     0.5869   0.9584   0.25
V30     V     0.5869   0.9584   0.75
V31     V     0.7084   0.8369   0.375
V32     V     0.7084   0.8369   0.875
V33     V     0.4132   0.9584   0.0
V34     V     0.4132   0.9584   0.5
V35     V     0.2916   0.8369   0.125
V36     V     0.2916   0.8369   0.625
V37     V     0.4132   0.0416   0.25
V38     V     0.4132   0.0416   0.75
V39     V     0.2916   0.1632   0.125
V40     V     0.2916   0.1632   0.625
V41     V     0.2084   0.1632   0.375
V42     V     0.2084   0.1632   0.875
V43     V     0.0869   0.0416   0.25
V44     V     0.0869   0.0416   0.75
V45     V     0.0869   0.9584   0.0
V46     V     0.0869   0.9584   0.5
V47     V     0.2084   0.8369   0.375
V48     V     0.2084   0.8369   0.875
V49     V     0.4132   0.5416   0.25
V50     V     0.4132   0.5416   0.75
V51     V     0.2916   0.6632   0.375
V52     V     0.2916   0.6632   0.875
V53     V     0.2916   0.3369   0.375
V54     V     0.2916   0.3369   0.875
V55     V     0.4132   0.4584   0.0
V56     V     0.4132   0.4584   0.5
V57     V     0.2084   0.6632   0.125
V58     V     0.2084   0.6632   0.625
V59     V     0.0869   0.5416   0.25
V60     V     0.0869   0.5416   0.75
V61     V     0.2084   0.3369   0.125
V62     V     0.2084   0.3369   0.625
V63     V     0.0869   0.4584   0.0
V64     V     0.0869   0.4584   0.5
loop_
_geom_bond_atom_site_label_1
_geom_bond_atom_site_label_2
_geom_bond_distance
_geom_bond_site_symmetry_2
_ccdc_geom_bond_type
V1     V4    10.0   .     S
V1     V5    10.0   .     S
V1     V6    10.0   .     S
V1     V31    10.0   .     S
V2     V3    10.0   1_556     S
V2     V6    10.0   .     S
V2     V5    10.0   1_556     S
V2     V32    10.0   .     S
V3     V2    10.0   1_554     S
V3     V15    10.0   .     S
V3     V16    10.0   1_554     S
V3     V63    10.0   1_655     S
V4     V16    10.0   .     S
V4     V15    10.0   .     S
V4     V64    10.0   1_655     S
V5     V7    10.0   .     S
V5     V2    10.0   1_554     S
V5     V25    10.0   .     S
V6     V8    10.0   .     S
V6     V26    10.0   .     S
V7     V12    10.0   1_554     S
V7     V11    10.0   .     S
V7     V55    10.0   .     S
V8     V11    10.0   .     S
V8     V12    10.0   .     S
V8     V56    10.0   .     S
V9     V11    10.0   .     S
V9     V14    10.0   1_554     S
V9     V13    10.0   .     S
V9     V17    10.0   .     S
V10     V12    10.0   .     S
V10     V13    10.0   .     S
V10     V14    10.0   .     S
V10     V18    10.0   .     S
V11     V49    10.0   .     S
V12     V7    10.0   1_556     S
V12     V50    10.0   .     S
V13     V15    10.0   .     S
V13     V21    10.0   .     S
V14     V16    10.0   .     S
V14     V9    10.0   1_556     S
V14     V22    10.0   .     S
V15     V59    10.0   1_655     S
V16     V3    10.0   1_556     S
V16     V60    10.0   1_655     S
V17     V19    10.0   .     S
V17     V21    10.0   .     S
V17     V22    10.0   1_554     S
V18     V20    10.0   .     S
V18     V22    10.0   .     S
V18     V21    10.0   .     S
V19     V28    10.0   1_544     S
V19     V27    10.0   1_545     S
V19     V45    10.0   1_645     S
V20     V27    10.0   1_545     S
V20     V28    10.0   1_545     S
V20     V46    10.0   1_645     S
V21     V24    10.0   .     S
V22     V23    10.0   1_556     S
V22     V17    10.0   1_556     S
V23     V22    10.0   1_554     S
V23     V29    10.0   1_545     S
V23     V30    10.0   1_544     S
V23     V33    10.0   1_545     S
V24     V30    10.0   1_545     S
V24     V29    10.0   1_545     S
V24     V34    10.0   1_545     S
V25     V27    10.0   .     S
V25     V32    10.0   1_554     S
V25     V31    10.0   .     S
V26     V28    10.0   .     S
V26     V31    10.0   .     S
V26     V32    10.0   .     S
V27     V20    10.0   1_565     S
V27     V19    10.0   1_565     S
V27     V43    10.0   1_665     S
V28     V19    10.0   1_566     S
V28     V20    10.0   1_565     S
V28     V44    10.0   1_665     S
V29     V31    10.0   .     S
V29     V23    10.0   1_565     S
V29     V24    10.0   1_565     S
V29     V37    10.0   1_565     S
V30     V32    10.0   .     S
V30     V24    10.0   1_565     S
V30     V23    10.0   1_566     S
V30     V38    10.0   1_565     S
V32     V25    10.0   1_556     S
V33     V35    10.0   .     S
V33     V38    10.0   1_564     S
V33     V37    10.0   1_565     S
V33     V23    10.0   1_565     S
V34     V36    10.0   .     S
V34     V37    10.0   1_565     S
V34     V38    10.0   1_565     S
V34     V24    10.0   1_565     S
V35     V47    10.0   .     S
V35     V48    10.0   1_554     S
V35     V57    10.0   .     S
V36     V48    10.0   .     S
V36     V47    10.0   .     S
V36     V58    10.0   .     S
V37     V29    10.0   1_545     S
V37     V34    10.0   1_545     S
V37     V33    10.0   1_545     S
V37     V39    10.0   .     S
V38     V30    10.0   1_545     S
V38     V33    10.0   1_546     S
V38     V34    10.0   1_545     S
V38     V40    10.0   .     S
V39     V42    10.0   1_554     S
V39     V41    10.0   .     S
V39     V61    10.0   .     S
V40     V41    10.0   .     S
V40     V42    10.0   .     S
V40     V62    10.0   .     S
V41     V43    10.0   .     S
V41     V53    10.0   .     S
V42     V39    10.0   1_556     S
V42     V44    10.0   .     S
V42     V54    10.0   .     S
V43     V27    10.0   1_445     S
V43     V45    10.0   1_545     S
V43     V46    10.0   1_545     S
V44     V28    10.0   1_445     S
V44     V46    10.0   1_545     S
V44     V45    10.0   1_546     S
V45     V48    10.0   1_554     S
V45     V43    10.0   1_565     S
V45     V44    10.0   1_564     S
V45     V19    10.0   1_465     S
V46     V47    10.0   .     S
V46     V44    10.0   1_565     S
V46     V43    10.0   1_565     S
V46     V20    10.0   1_465     S
V47     V51    10.0   .     S
V48     V35    10.0   1_556     S
V48     V45    10.0   1_556     S
V48     V52    10.0   .     S
V49     V51    10.0   .     S
V49     V55    10.0   .     S
V49     V56    10.0   .     S
V50     V52    10.0   .     S
V50     V56    10.0   .     S
V50     V55    10.0   1_556     S
V51     V58    10.0   .     S
V51     V57    10.0   .     S
V52     V57    10.0   1_556     S
V52     V58    10.0   .     S
V53     V56    10.0   .     S
V53     V61    10.0   .     S
V53     V62    10.0   .     S
V54     V55    10.0   1_556     S
V54     V62    10.0   .     S
V54     V61    10.0   1_556     S
V55     V54    10.0   1_554     S
V55     V50    10.0   1_554     S
V57     V52    10.0   1_554     S
V57     V59    10.0   .     S
V58     V60    10.0   .     S
V59     V64    10.0   .     S
V59     V63    10.0   .     S
V59     V15    10.0   1_455     S
V60     V63    10.0   1_556     S
V60     V64    10.0   .     S
V60     V16    10.0   1_455     S
V61     V54    10.0   1_554     S
V61     V63    10.0   .     S
V62     V64    10.0   .     S
V63     V60    10.0   1_554     S
V63     V3    10.0   1_455     S
V64     V4    10.0   1_455     S
