data_uog
_audit_creation_date              2019-12-31
_audit_creation_method            'Pymatgen'
_symmetry_space_group_name_H-M    'P1'
_symmetry_Int_Tables_number       1
loop_
_symmetry_equiv_pos_as_xyz
  x,y,z
_cell_length_a                    39.385
_cell_length_b                    39.385
_cell_length_c                    28.2015
_cell_angle_alpha                 90.0
_cell_angle_beta                 90.0
_cell_angle_gamma                 120.0
loop_
_atom_site_label
_atom_site_type_symbol
_atom_site_fract_x
_atom_site_fract_y
_atom_site_fract_z
V1     V     0.3622   0.2244   0.5
V2     V     0.3622   0.7244   0.5
V3     V     0.8622   0.2244   0.5
V4     V     0.8622   0.7244   0.5
V5     V     0.2756   0.1378   0.1667
V6     V     0.2756   0.6378   0.1667
V7     V     0.7756   0.1378   0.1667
V8     V     0.7756   0.6378   0.1667
V9     V     0.1378   0.2756   0.5
V10     V     0.1378   0.7756   0.5
V11     V     0.6378   0.2756   0.5
V12     V     0.6378   0.7756   0.5
V13     V     0.2244   0.3622   0.1667
V14     V     0.2244   0.8622   0.1667
V15     V     0.7244   0.3622   0.1667
V16     V     0.7244   0.8622   0.1667
V17     V     0.1378   0.3622   0.8333
V18     V     0.1378   0.8622   0.8333
V19     V     0.6378   0.3622   0.8333
V20     V     0.6378   0.8622   0.8333
V21     V     0.3622   0.1378   0.8333
V22     V     0.3622   0.6378   0.8333
V23     V     0.8622   0.1378   0.8333
V24     V     0.8622   0.6378   0.8333
loop_
_geom_bond_atom_site_label_1
_geom_bond_atom_site_label_2
_geom_bond_distance
_geom_bond_site_symmetry_2
_ccdc_geom_bond_type
V1     V5    10.0   .     S
V1     V9    10.0   .     S
V1     V11    10.0   .     S
V1     V21    10.0   .     S
V2     V6    10.0   .     S
V2     V10    10.0   .     S
V2     V12    10.0   .     S
V2     V22    10.0   .     S
V3     V7    10.0   .     S
V3     V11    10.0   .     S
V3     V9    10.0   1_655     S
V3     V23    10.0   .     S
V4     V8    10.0   .     S
V4     V12    10.0   .     S
V4     V10    10.0   1_655     S
V4     V24    10.0   .     S
V5     V21    10.0   1_554     S
V5     V13    10.0   .     S
V5     V14    10.0   1_545     S
V6     V22    10.0   1_554     S
V6     V14    10.0   .     S
V6     V13    10.0   .     S
V7     V23    10.0   1_554     S
V7     V15    10.0   .     S
V7     V16    10.0   1_545     S
V8     V24    10.0   1_554     S
V8     V16    10.0   .     S
V8     V15    10.0   .     S
V9     V13    10.0   .     S
V9     V3    10.0   1_455     S
V9     V17    10.0   .     S
V10     V14    10.0   .     S
V10     V4    10.0   1_455     S
V10     V18    10.0   .     S
V11     V15    10.0   .     S
V11     V19    10.0   .     S
V12     V16    10.0   .     S
V12     V20    10.0   .     S
V13     V17    10.0   1_554     S
V14     V18    10.0   1_554     S
V14     V5    10.0   1_565     S
V15     V19    10.0   1_554     S
V16     V20    10.0   1_554     S
V16     V7    10.0   1_565     S
V17     V13    10.0   1_556     S
V17     V23    10.0   1_455     S
V17     V22    10.0   .     S
V18     V14    10.0   1_556     S
V18     V24    10.0   1_455     S
V18     V21    10.0   1_565     S
V19     V15    10.0   1_556     S
V19     V21    10.0   .     S
V19     V24    10.0   .     S
V20     V16    10.0   1_556     S
V20     V22    10.0   .     S
V20     V23    10.0   1_565     S
V21     V5    10.0   1_556     S
V21     V18    10.0   1_545     S
V22     V6    10.0   1_556     S
V23     V7    10.0   1_556     S
V23     V17    10.0   1_655     S
V23     V20    10.0   1_545     S
V24     V8    10.0   1_556     S
V24     V18    10.0   1_655     S
