data_uoh
_audit_creation_date              2019-12-31
_audit_creation_method            'Pymatgen'
_symmetry_space_group_name_H-M    'P1'
_symmetry_Int_Tables_number       1
loop_
_symmetry_equiv_pos_as_xyz
  x,y,z
_cell_length_a                    63.9083
_cell_length_b                    63.9083
_cell_length_c                    34.8616
_cell_angle_alpha                 90.0
_cell_angle_beta                 90.0
_cell_angle_gamma                 120.0
loop_
_atom_site_label
_atom_site_type_symbol
_atom_site_fract_x
_atom_site_fract_y
_atom_site_fract_z
V1     V     0.4998   0.9229   0.4744
V2     V     0.4998   0.9229   0.9744
V3     V     0.5002   0.0771   0.0256
V4     V     0.5002   0.0771   0.5256
V5     V     0.5769   0.0771   0.2756
V6     V     0.5769   0.0771   0.7756
V7     V     0.4231   0.9229   0.2244
V8     V     0.4231   0.9229   0.7244
V9     V     0.4998   0.5769   0.2244
V10     V     0.4998   0.5769   0.7244
V11     V     0.5002   0.4231   0.2756
V12     V     0.5002   0.4231   0.7756
V13     V     0.5769   0.4998   0.0256
V14     V     0.5769   0.4998   0.5256
V15     V     0.4231   0.5002   0.4744
V16     V     0.4231   0.5002   0.9744
V17     V     0.9229   0.4231   0.0256
V18     V     0.9229   0.4231   0.5256
V19     V     0.0771   0.5769   0.4744
V20     V     0.0771   0.5769   0.9744
V21     V     0.0771   0.5002   0.2244
V22     V     0.0771   0.5002   0.7244
V23     V     0.9229   0.4998   0.2756
V24     V     0.9229   0.4998   0.7756
V25     V     0.2436   0.8332   0.1922
V26     V     0.2436   0.8332   0.6922
V27     V     0.0898   0.8335   0.1411
V28     V     0.0898   0.8335   0.6411
V29     V     0.1668   0.7564   0.4422
V30     V     0.1668   0.7564   0.9422
V31     V     0.1665   0.9102   0.3911
V32     V     0.1665   0.9102   0.8911
V33     V     0.8335   0.7437   0.3589
V34     V     0.8335   0.7437   0.8589
V35     V     0.8332   0.5896   0.3078
V36     V     0.8332   0.5896   0.8078
V37     V     0.9102   0.7437   0.1089
V38     V     0.9102   0.7437   0.6089
V39     V     0.7564   0.5896   0.0578
V40     V     0.7564   0.5896   0.5578
V41     V     0.7437   0.8335   0.3911
V42     V     0.7437   0.8335   0.8911
V43     V     0.5896   0.8332   0.4422
V44     V     0.5896   0.8332   0.9422
V45     V     0.5896   0.7564   0.1922
V46     V     0.5896   0.7564   0.6922
V47     V     0.7437   0.9102   0.1411
V48     V     0.7437   0.9102   0.6411
V49     V     0.4104   0.1668   0.0578
V50     V     0.4104   0.1668   0.5578
V51     V     0.2563   0.1665   0.1089
V52     V     0.2563   0.1665   0.6089
V53     V     0.2563   0.0898   0.3589
V54     V     0.2563   0.0898   0.8589
V55     V     0.4104   0.2436   0.3078
V56     V     0.4104   0.2436   0.8078
V57     V     0.7564   0.1668   0.3078
V58     V     0.7564   0.1668   0.8078
V59     V     0.9102   0.1665   0.3589
V60     V     0.9102   0.1665   0.8589
V61     V     0.8332   0.2436   0.0578
V62     V     0.8332   0.2436   0.5578
V63     V     0.8335   0.0898   0.1089
V64     V     0.8335   0.0898   0.6089
V65     V     0.1668   0.4104   0.1922
V66     V     0.1668   0.4104   0.6922
V67     V     0.1665   0.2563   0.1411
V68     V     0.1665   0.2563   0.6411
V69     V     0.2436   0.4104   0.4422
V70     V     0.2436   0.4104   0.9422
V71     V     0.0898   0.2563   0.3911
V72     V     0.0898   0.2563   0.8911
loop_
_geom_bond_atom_site_label_1
_geom_bond_atom_site_label_2
_geom_bond_distance
_geom_bond_site_symmetry_2
_ccdc_geom_bond_type
V1     V4    10.0   1_565     S
V1     V7    10.0   .     S
V1     V8    10.0   .     S
V1     V43    10.0   .     S
V2     V3    10.0   1_566     S
V2     V8    10.0   .     S
V2     V7    10.0   1_556     S
V2     V44    10.0   .     S
V3     V2    10.0   1_544     S
V3     V6    10.0   1_554     S
V3     V5    10.0   .     S
V3     V49    10.0   .     S
V4     V1    10.0   1_545     S
V4     V5    10.0   .     S
V4     V6    10.0   .     S
V4     V50    10.0   .     S
V5     V7    10.0   1_545     S
V5     V57    10.0   .     S
V6     V8    10.0   1_545     S
V6     V3    10.0   1_556     S
V6     V58    10.0   .     S
V7     V5    10.0   1_565     S
V7     V2    10.0   1_554     S
V7     V25    10.0   .     S
V8     V6    10.0   1_565     S
V8     V26    10.0   .     S
V9     V11    10.0   .     S
V9     V15    10.0   .     S
V9     V16    10.0   1_554     S
V9     V45    10.0   .     S
V10     V12    10.0   .     S
V10     V16    10.0   .     S
V10     V15    10.0   .     S
V10     V46    10.0   .     S
V11     V14    10.0   .     S
V11     V13    10.0   .     S
V11     V55    10.0   .     S
V12     V13    10.0   1_556     S
V12     V14    10.0   .     S
V12     V56    10.0   .     S
V13     V12    10.0   1_554     S
V13     V16    10.0   1_554     S
V13     V39    10.0   .     S
V14     V15    10.0   .     S
V14     V40    10.0   .     S
V15     V69    10.0   .     S
V16     V13    10.0   1_556     S
V16     V9    10.0   1_556     S
V16     V70    10.0   .     S
V17     V20    10.0   1_654     S
V17     V24    10.0   1_554     S
V17     V23    10.0   .     S
V17     V61    10.0   .     S
V18     V19    10.0   1_655     S
V18     V23    10.0   .     S
V18     V24    10.0   .     S
V18     V62    10.0   .     S
V19     V18    10.0   1_455     S
V19     V21    10.0   .     S
V19     V22    10.0   .     S
V19     V29    10.0   .     S
V20     V17    10.0   1_456     S
V20     V22    10.0   .     S
V20     V21    10.0   1_556     S
V20     V30    10.0   .     S
V21     V23    10.0   1_455     S
V21     V20    10.0   1_554     S
V21     V65    10.0   .     S
V22     V24    10.0   1_455     S
V22     V66    10.0   .     S
V23     V21    10.0   1_655     S
V23     V35    10.0   .     S
V24     V22    10.0   1_655     S
V24     V17    10.0   1_556     S
V24     V36    10.0   .     S
V25     V27    10.0   .     S
V25     V29    10.0   .     S
V25     V30    10.0   1_554     S
V26     V28    10.0   .     S
V26     V30    10.0   .     S
V26     V29    10.0   .     S
V27     V31    10.0   .     S
V27     V32    10.0   1_554     S
V27     V37    10.0   1_455     S
V28     V32    10.0   .     S
V28     V31    10.0   .     S
V28     V38    10.0   1_455     S
V29     V31    10.0   .     S
V30     V25    10.0   1_556     S
V30     V32    10.0   .     S
V31     V53    10.0   1_565     S
V32     V27    10.0   1_556     S
V32     V54    10.0   1_565     S
V33     V35    10.0   .     S
V33     V38    10.0   .     S
V33     V37    10.0   .     S
V33     V41    10.0   .     S
V34     V36    10.0   .     S
V34     V37    10.0   1_556     S
V34     V38    10.0   .     S
V34     V42    10.0   .     S
V35     V40    10.0   .     S
V35     V39    10.0   .     S
V36     V39    10.0   1_556     S
V36     V40    10.0   .     S
V37     V39    10.0   .     S
V37     V34    10.0   1_554     S
V37     V27    10.0   1_655     S
V38     V40    10.0   .     S
V38     V28    10.0   1_655     S
V39     V36    10.0   1_554     S
V41     V43    10.0   .     S
V41     V47    10.0   .     S
V41     V48    10.0   .     S
V42     V44    10.0   .     S
V42     V48    10.0   .     S
V42     V47    10.0   1_556     S
V43     V45    10.0   .     S
V43     V46    10.0   .     S
V44     V46    10.0   .     S
V44     V45    10.0   1_556     S
V45     V44    10.0   1_554     S
V45     V47    10.0   .     S
V46     V48    10.0   .     S
V47     V42    10.0   1_554     S
V47     V63    10.0   1_565     S
V48     V64    10.0   1_565     S
V49     V51    10.0   .     S
V49     V56    10.0   1_554     S
V49     V55    10.0   .     S
V50     V52    10.0   .     S
V50     V55    10.0   .     S
V50     V56    10.0   .     S
V51     V54    10.0   1_554     S
V51     V53    10.0   .     S
V51     V67    10.0   .     S
V52     V53    10.0   .     S
V52     V54    10.0   .     S
V52     V68    10.0   .     S
V53     V31    10.0   1_545     S
V53     V55    10.0   .     S
V54     V32    10.0   1_545     S
V54     V51    10.0   1_556     S
V54     V56    10.0   .     S
V56     V49    10.0   1_556     S
V57     V59    10.0   .     S
V57     V62    10.0   .     S
V57     V61    10.0   .     S
V58     V60    10.0   .     S
V58     V61    10.0   1_556     S
V58     V62    10.0   .     S
V59     V64    10.0   .     S
V59     V63    10.0   .     S
V59     V71    10.0   1_655     S
V60     V63    10.0   1_556     S
V60     V64    10.0   .     S
V60     V72    10.0   1_655     S
V61     V63    10.0   .     S
V61     V58    10.0   1_554     S
V62     V64    10.0   .     S
V63     V47    10.0   1_545     S
V63     V60    10.0   1_554     S
V64     V48    10.0   1_545     S
V65     V67    10.0   .     S
V65     V69    10.0   .     S
V65     V70    10.0   1_554     S
V66     V68    10.0   .     S
V66     V70    10.0   .     S
V66     V69    10.0   .     S
V67     V71    10.0   .     S
V67     V72    10.0   1_554     S
V68     V72    10.0   .     S
V68     V71    10.0   .     S
V69     V71    10.0   .     S
V70     V72    10.0   .     S
V70     V65    10.0   1_556     S
V71     V59    10.0   1_455     S
V72     V60    10.0   1_455     S
V72     V67    10.0   1_556     S
