data_uoi
_audit_creation_date              2019-12-31
_audit_creation_method            'Pymatgen'
_symmetry_space_group_name_H-M    'P1'
_symmetry_Int_Tables_number       1
loop_
_symmetry_equiv_pos_as_xyz
  x,y,z
_cell_length_a                    55.893
_cell_length_b                    55.893
_cell_length_c                    27.6618
_cell_angle_alpha                 90.0
_cell_angle_beta                 90.0
_cell_angle_gamma                 90.0
loop_
_atom_site_label
_atom_site_type_symbol
_atom_site_fract_x
_atom_site_fract_y
_atom_site_fract_z
V1     V     0.3226   0.3146   0.1057
V2     V     0.3226   0.3146   0.6057
V3     V     0.4354   0.4274   0.2693
V4     V     0.4354   0.4274   0.7693
V5     V     0.0646   0.4274   0.2307
V6     V     0.0646   0.4274   0.7307
V7     V     0.1774   0.3146   0.3943
V8     V     0.1774   0.3146   0.8943
V9     V     0.4354   0.5726   0.4807
V10     V     0.4354   0.5726   0.9807
V11     V     0.3226   0.6854   0.1443
V12     V     0.3226   0.6854   0.6443
V13     V     0.0646   0.5726   0.0193
V14     V     0.0646   0.5726   0.5193
V15     V     0.1774   0.6854   0.3557
V16     V     0.1774   0.6854   0.8557
V17     V     0.5646   0.5726   0.2307
V18     V     0.5646   0.5726   0.7307
V19     V     0.6774   0.6854   0.3943
V20     V     0.6774   0.6854   0.8943
V21     V     0.6774   0.3146   0.3557
V22     V     0.6774   0.3146   0.8557
V23     V     0.5646   0.4274   0.0193
V24     V     0.5646   0.4274   0.5193
V25     V     0.8226   0.6854   0.1057
V26     V     0.8226   0.6854   0.6057
V27     V     0.9354   0.5726   0.2693
V28     V     0.9354   0.5726   0.7693
V29     V     0.8226   0.3146   0.1443
V30     V     0.8226   0.3146   0.6443
V31     V     0.9354   0.4274   0.4807
V32     V     0.9354   0.4274   0.9807
V33     V     0.3226   0.1854   0.3557
V34     V     0.3226   0.1854   0.8557
V35     V     0.4354   0.0726   0.0193
V36     V     0.4354   0.0726   0.5193
V37     V     0.1774   0.1854   0.1443
V38     V     0.1774   0.1854   0.6443
V39     V     0.0646   0.0726   0.4807
V40     V     0.0646   0.0726   0.9807
V41     V     0.4354   0.9274   0.2307
V42     V     0.4354   0.9274   0.7307
V43     V     0.3226   0.8146   0.3943
V44     V     0.3226   0.8146   0.8943
V45     V     0.0646   0.9274   0.2693
V46     V     0.0646   0.9274   0.7693
V47     V     0.1774   0.8146   0.1057
V48     V     0.1774   0.8146   0.6057
V49     V     0.6774   0.1854   0.1057
V50     V     0.6774   0.1854   0.6057
V51     V     0.5646   0.0726   0.2693
V52     V     0.5646   0.0726   0.7693
V53     V     0.6774   0.8146   0.1443
V54     V     0.6774   0.8146   0.6443
V55     V     0.5646   0.9274   0.4807
V56     V     0.5646   0.9274   0.9807
V57     V     0.9354   0.9274   0.0193
V58     V     0.9354   0.9274   0.5193
V59     V     0.8226   0.8146   0.3557
V60     V     0.8226   0.8146   0.8557
V61     V     0.9354   0.0726   0.2307
V62     V     0.9354   0.0726   0.7307
V63     V     0.8226   0.1854   0.3943
V64     V     0.8226   0.1854   0.8943
loop_
_geom_bond_atom_site_label_1
_geom_bond_atom_site_label_2
_geom_bond_distance
_geom_bond_site_symmetry_2
_ccdc_geom_bond_type
V1     V3    10.0   .     S
V1     V8    10.0   1_554     S
V1     V33    10.0   .     S
V1     V34    10.0   1_554     S
V2     V4    10.0   .     S
V2     V7    10.0   .     S
V2     V34    10.0   .     S
V2     V33    10.0   .     S
V3     V9    10.0   .     S
V3     V23    10.0   .     S
V3     V24    10.0   .     S
V4     V10    10.0   .     S
V4     V24    10.0   .     S
V4     V23    10.0   1_556     S
V5     V7    10.0   .     S
V5     V13    10.0   .     S
V5     V31    10.0   1_455     S
V5     V32    10.0   1_454     S
V6     V8    10.0   .     S
V6     V14    10.0   .     S
V6     V32    10.0   1_455     S
V6     V31    10.0   1_455     S
V7     V38    10.0   .     S
V7     V37    10.0   .     S
V8     V1    10.0   1_556     S
V8     V37    10.0   1_556     S
V8     V38    10.0   .     S
V9     V12    10.0   .     S
V9     V17    10.0   .     S
V9     V18    10.0   .     S
V10     V11    10.0   1_556     S
V10     V18    10.0   .     S
V10     V17    10.0   1_556     S
V11     V10    10.0   1_554     S
V11     V15    10.0   .     S
V11     V43    10.0   .     S
V11     V44    10.0   1_554     S
V12     V16    10.0   .     S
V12     V44    10.0   .     S
V12     V43    10.0   .     S
V13     V16    10.0   1_554     S
V13     V28    10.0   1_454     S
V13     V27    10.0   1_455     S
V14     V15    10.0   .     S
V14     V27    10.0   1_455     S
V14     V28    10.0   1_455     S
V15     V47    10.0   .     S
V15     V48    10.0   .     S
V16     V13    10.0   1_556     S
V16     V48    10.0   .     S
V16     V47    10.0   1_556     S
V17     V19    10.0   .     S
V17     V23    10.0   .     S
V17     V10    10.0   1_554     S
V18     V20    10.0   .     S
V18     V24    10.0   .     S
V19     V26    10.0   .     S
V19     V54    10.0   .     S
V19     V53    10.0   .     S
V20     V25    10.0   1_556     S
V20     V53    10.0   1_556     S
V20     V54    10.0   .     S
V21     V24    10.0   .     S
V21     V29    10.0   .     S
V21     V49    10.0   .     S
V21     V50    10.0   .     S
V22     V23    10.0   1_556     S
V22     V30    10.0   .     S
V22     V50    10.0   .     S
V22     V49    10.0   1_556     S
V23     V22    10.0   1_554     S
V23     V4    10.0   1_554     S
V25     V27    10.0   .     S
V25     V20    10.0   1_554     S
V25     V60    10.0   1_554     S
V25     V59    10.0   .     S
V26     V28    10.0   .     S
V26     V59    10.0   .     S
V26     V60    10.0   .     S
V27     V14    10.0   1_655     S
V27     V31    10.0   .     S
V27     V13    10.0   1_655     S
V28     V13    10.0   1_656     S
V28     V32    10.0   .     S
V28     V14    10.0   1_655     S
V29     V32    10.0   1_554     S
V29     V63    10.0   .     S
V29     V64    10.0   1_554     S
V30     V31    10.0   .     S
V30     V64    10.0   .     S
V30     V63    10.0   .     S
V31     V5    10.0   1_655     S
V31     V6    10.0   1_655     S
V32     V6    10.0   1_655     S
V32     V29    10.0   1_556     S
V32     V5    10.0   1_656     S
V33     V36    10.0   .     S
V33     V37    10.0   .     S
V34     V35    10.0   1_556     S
V34     V38    10.0   .     S
V34     V1    10.0   1_556     S
V35     V34    10.0   1_554     S
V35     V41    10.0   1_545     S
V35     V51    10.0   .     S
V35     V52    10.0   1_554     S
V36     V42    10.0   1_545     S
V36     V52    10.0   .     S
V36     V51    10.0   .     S
V37     V40    10.0   1_554     S
V37     V8    10.0   1_554     S
V38     V39    10.0   .     S
V39     V45    10.0   1_545     S
V39     V62    10.0   1_455     S
V39     V61    10.0   1_455     S
V40     V37    10.0   1_556     S
V40     V46    10.0   1_545     S
V40     V61    10.0   1_456     S
V40     V62    10.0   1_455     S
V41     V35    10.0   1_565     S
V41     V43    10.0   .     S
V41     V55    10.0   .     S
V41     V56    10.0   1_554     S
V42     V36    10.0   1_565     S
V42     V44    10.0   .     S
V42     V56    10.0   .     S
V42     V55    10.0   .     S
V43     V48    10.0   .     S
V44     V47    10.0   1_556     S
V44     V11    10.0   1_556     S
V45     V39    10.0   1_565     S
V45     V47    10.0   .     S
V45     V57    10.0   1_455     S
V45     V58    10.0   1_455     S
V46     V40    10.0   1_565     S
V46     V48    10.0   .     S
V46     V58    10.0   1_455     S
V46     V57    10.0   1_456     S
V47     V44    10.0   1_554     S
V47     V16    10.0   1_554     S
V49     V51    10.0   .     S
V49     V64    10.0   1_554     S
V49     V22    10.0   1_554     S
V50     V52    10.0   .     S
V50     V63    10.0   .     S
V51     V55    10.0   1_545     S
V52     V56    10.0   1_545     S
V52     V35    10.0   1_556     S
V53     V56    10.0   1_554     S
V53     V59    10.0   .     S
V53     V20    10.0   1_554     S
V54     V55    10.0   .     S
V54     V60    10.0   .     S
V55     V51    10.0   1_565     S
V56     V52    10.0   1_565     S
V56     V53    10.0   1_556     S
V56     V41    10.0   1_556     S
V57     V45    10.0   1_655     S
V57     V60    10.0   1_554     S
V57     V61    10.0   1_565     S
V57     V46    10.0   1_654     S
V58     V46    10.0   1_655     S
V58     V59    10.0   .     S
V58     V62    10.0   1_565     S
V58     V45    10.0   1_655     S
V60     V57    10.0   1_556     S
V60     V25    10.0   1_556     S
V61     V40    10.0   1_654     S
V61     V39    10.0   1_655     S
V61     V63    10.0   .     S
V61     V57    10.0   1_545     S
V62     V39    10.0   1_655     S
V62     V40    10.0   1_655     S
V62     V64    10.0   .     S
V62     V58    10.0   1_545     S
V64     V49    10.0   1_556     S
V64     V29    10.0   1_556     S
