data_uom
_audit_creation_date              2019-12-31
_audit_creation_method            'Pymatgen'
_symmetry_space_group_name_H-M    'P1'
_symmetry_Int_Tables_number       1
loop_
_symmetry_equiv_pos_as_xyz
  x,y,z
_cell_length_a                    40.0002
_cell_length_b                    40.0002
_cell_length_c                    25.9806
_cell_angle_alpha                 90.0
_cell_angle_beta                 90.0
_cell_angle_gamma                 120.0
loop_
_atom_site_label
_atom_site_type_symbol
_atom_site_fract_x
_atom_site_fract_y
_atom_site_fract_z
V1     V     0.375   0.375   0.3333
V2     V     0.375   0.875   0.3333
V3     V     0.875   0.375   0.3333
V4     V     0.875   0.875   0.3333
V5     V     0.125   0.125   0.3333
V6     V     0.125   0.625   0.3333
V7     V     0.625   0.125   0.3333
V8     V     0.625   0.625   0.3333
V9     V     1.0   0.375   0.6667
V10     V     1.0   0.875   0.6667
V11     V     0.5   0.375   0.6667
V12     V     0.5   0.875   0.6667
V13     V     1.0   0.125   0.6667
V14     V     1.0   0.625   0.6667
V15     V     0.5   0.125   0.6667
V16     V     0.5   0.625   0.6667
V17     V     0.375   0.0   0.0
V18     V     0.375   0.5   0.0
V19     V     0.875   0.0   0.0
V20     V     0.875   0.5   0.0
V21     V     0.125   0.0   0.0
V22     V     0.125   0.5   0.0
V23     V     0.625   0.0   0.0
V24     V     0.625   0.5   0.0
loop_
_geom_bond_atom_site_label_1
_geom_bond_atom_site_label_2
_geom_bond_distance
_geom_bond_site_symmetry_2
_ccdc_geom_bond_type
V1     V18    10.0   .     S
V1     V5    10.0   .     S
V1     V8    10.0   .     S
V1     V11    10.0   .     S
V2     V17    10.0   1_565     S
V2     V6    10.0   .     S
V2     V7    10.0   1_565     S
V2     V12    10.0   .     S
V3     V20    10.0   .     S
V3     V7    10.0   .     S
V3     V6    10.0   1_655     S
V3     V9    10.0   .     S
V4     V19    10.0   1_565     S
V4     V8    10.0   .     S
V4     V5    10.0   1_665     S
V4     V10    10.0   .     S
V5     V21    10.0   .     S
V5     V4    10.0   1_445     S
V5     V13    10.0   1_455     S
V6     V22    10.0   .     S
V6     V3    10.0   1_455     S
V6     V14    10.0   1_455     S
V7     V23    10.0   .     S
V7     V2    10.0   1_545     S
V7     V15    10.0   .     S
V8     V24    10.0   .     S
V8     V16    10.0   .     S
V9     V14    10.0   .     S
V9     V13    10.0   .     S
V9     V22    10.0   1_656     S
V10     V13    10.0   1_565     S
V10     V14    10.0   .     S
V10     V21    10.0   1_666     S
V11     V16    10.0   .     S
V11     V15    10.0   .     S
V11     V24    10.0   1_556     S
V12     V15    10.0   1_565     S
V12     V16    10.0   .     S
V12     V23    10.0   1_566     S
V13     V5    10.0   1_655     S
V13     V10    10.0   1_545     S
V13     V19    10.0   1_556     S
V14     V6    10.0   1_655     S
V14     V20    10.0   1_556     S
V15     V12    10.0   1_545     S
V15     V17    10.0   1_556     S
V16     V18    10.0   1_556     S
V17     V2    10.0   1_545     S
V17     V15    10.0   1_554     S
V17     V21    10.0   .     S
V17     V23    10.0   .     S
V18     V16    10.0   1_554     S
V18     V22    10.0   .     S
V18     V24    10.0   .     S
V19     V4    10.0   1_545     S
V19     V13    10.0   1_554     S
V19     V23    10.0   .     S
V19     V21    10.0   1_655     S
V20     V14    10.0   1_554     S
V20     V24    10.0   .     S
V20     V22    10.0   1_655     S
V21     V10    10.0   1_444     S
V21     V19    10.0   1_455     S
V22     V9    10.0   1_454     S
V22     V20    10.0   1_455     S
V23     V12    10.0   1_544     S
V24     V11    10.0   1_554     S
