data_uoo
_audit_creation_date              2019-12-31
_audit_creation_method            'Pymatgen'
_symmetry_space_group_name_H-M    'P1'
_symmetry_Int_Tables_number       1
loop_
_symmetry_equiv_pos_as_xyz
  x,y,z
_cell_length_a                    37.2158
_cell_length_b                    37.2158
_cell_length_c                    23.4793
_cell_angle_alpha                 90.0
_cell_angle_beta                 90.0
_cell_angle_gamma                 120.0
loop_
_atom_site_label
_atom_site_type_symbol
_atom_site_fract_x
_atom_site_fract_y
_atom_site_fract_z
V1     V     0.4034   0.0966   0.3333
V2     V     0.4034   0.5966   0.3333
V3     V     0.9034   0.0966   0.3333
V4     V     0.9034   0.5966   0.3333
V5     V     0.0966   0.4034   0.3333
V6     V     0.0966   0.9034   0.3333
V7     V     0.5966   0.4034   0.3333
V8     V     0.5966   0.9034   0.3333
V9     V     0.4034   0.3069   0.0
V10     V     0.4034   0.8069   0.0
V11     V     0.9034   0.3069   0.0
V12     V     0.9034   0.8069   0.0
V13     V     0.0966   0.1931   0.0
V14     V     0.0966   0.6931   0.0
V15     V     0.5966   0.1931   0.0
V16     V     0.5966   0.6931   0.0
V17     V     0.3069   0.4034   0.6667
V18     V     0.3069   0.9034   0.6667
V19     V     0.8069   0.4034   0.6667
V20     V     0.8069   0.9034   0.6667
V21     V     0.1931   0.0966   0.6667
V22     V     0.1931   0.5966   0.6667
V23     V     0.6931   0.0966   0.6667
V24     V     0.6931   0.5966   0.6667
loop_
_geom_bond_atom_site_label_1
_geom_bond_atom_site_label_2
_geom_bond_distance
_geom_bond_site_symmetry_2
_ccdc_geom_bond_type
V1     V18    10.0   1_545     S
V1     V6    10.0   1_545     S
V1     V7    10.0   .     S
V1     V15    10.0   .     S
V2     V17    10.0   .     S
V2     V5    10.0   .     S
V2     V8    10.0   .     S
V2     V16    10.0   .     S
V3     V20    10.0   1_545     S
V3     V8    10.0   1_545     S
V3     V5    10.0   1_655     S
V3     V13    10.0   1_655     S
V4     V19    10.0   .     S
V4     V7    10.0   .     S
V4     V6    10.0   1_655     S
V4     V14    10.0   1_655     S
V5     V22    10.0   .     S
V5     V3    10.0   1_455     S
V5     V11    10.0   1_455     S
V6     V21    10.0   1_565     S
V6     V1    10.0   1_565     S
V6     V4    10.0   1_455     S
V6     V12    10.0   1_455     S
V7     V24    10.0   .     S
V7     V9    10.0   .     S
V8     V23    10.0   1_565     S
V8     V3    10.0   1_565     S
V8     V10    10.0   .     S
V9     V15    10.0   .     S
V9     V13    10.0   .     S
V9     V17    10.0   1_554     S
V10     V16    10.0   .     S
V10     V14    10.0   .     S
V10     V18    10.0   1_554     S
V11     V5    10.0   1_655     S
V11     V13    10.0   1_655     S
V11     V15    10.0   .     S
V11     V19    10.0   1_554     S
V12     V6    10.0   1_655     S
V12     V14    10.0   1_655     S
V12     V16    10.0   .     S
V12     V20    10.0   1_554     S
V13     V3    10.0   1_455     S
V13     V11    10.0   1_455     S
V13     V21    10.0   1_554     S
V14     V4    10.0   1_455     S
V14     V12    10.0   1_455     S
V14     V22    10.0   1_554     S
V15     V23    10.0   1_554     S
V16     V24    10.0   1_554     S
V17     V9    10.0   1_556     S
V17     V22    10.0   .     S
V17     V21    10.0   .     S
V18     V1    10.0   1_565     S
V18     V10    10.0   1_556     S
V18     V21    10.0   1_565     S
V18     V22    10.0   .     S
V19     V11    10.0   1_556     S
V19     V24    10.0   .     S
V19     V23    10.0   .     S
V20     V3    10.0   1_565     S
V20     V12    10.0   1_556     S
V20     V23    10.0   1_565     S
V20     V24    10.0   .     S
V21     V6    10.0   1_545     S
V21     V13    10.0   1_556     S
V21     V18    10.0   1_545     S
V22     V14    10.0   1_556     S
V23     V8    10.0   1_545     S
V23     V15    10.0   1_556     S
V23     V20    10.0   1_545     S
V24     V16    10.0   1_556     S
