data_uoq
_audit_creation_date              2019-12-31
_audit_creation_method            'Pymatgen'
_symmetry_space_group_name_H-M    'P1'
_symmetry_Int_Tables_number       1
loop_
_symmetry_equiv_pos_as_xyz
  x,y,z
_cell_length_a                    39.3505
_cell_length_b                    39.3505
_cell_length_c                    30.5194
_cell_angle_alpha                 90.0
_cell_angle_beta                 90.0
_cell_angle_gamma                 120.0
loop_
_atom_site_label
_atom_site_type_symbol
_atom_site_fract_x
_atom_site_fract_y
_atom_site_fract_z
V1     V     0.3062   0.8581   0.0417
V2     V     0.3062   0.8581   0.5417
V3     V     0.4481   0.1419   0.4583
V4     V     0.4481   0.1419   0.9583
V5     V     0.5519   0.8581   0.4583
V6     V     0.5519   0.8581   0.9583
V7     V     0.6938   0.1419   0.0417
V8     V     0.6938   0.1419   0.5417
V9     V     0.6938   0.5519   0.125
V10     V     0.6938   0.5519   0.625
V11     V     0.5519   0.6938   0.2083
V12     V     0.5519   0.6938   0.7083
V13     V     0.3062   0.4481   0.125
V14     V     0.3062   0.4481   0.625
V15     V     0.4481   0.3062   0.2083
V16     V     0.4481   0.3062   0.7083
V17     V     0.1419   0.6938   0.2917
V18     V     0.1419   0.6938   0.7917
V19     V     0.8581   0.5519   0.375
V20     V     0.8581   0.5519   0.875
V21     V     0.8581   0.3062   0.2917
V22     V     0.8581   0.3062   0.7917
V23     V     0.1419   0.4481   0.375
V24     V     0.1419   0.4481   0.875
loop_
_geom_bond_atom_site_label_1
_geom_bond_atom_site_label_2
_geom_bond_distance
_geom_bond_site_symmetry_2
_ccdc_geom_bond_type
V1     V4    10.0   1_564     S
V1     V6    10.0   1_554     S
V1     V18    10.0   1_554     S
V1     V17    10.0   .     S
V2     V3    10.0   1_565     S
V2     V5    10.0   .     S
V2     V17    10.0   .     S
V2     V18    10.0   .     S
V3     V2    10.0   1_545     S
V3     V8    10.0   .     S
V3     V15    10.0   .     S
V3     V16    10.0   .     S
V4     V1    10.0   1_546     S
V4     V7    10.0   1_556     S
V4     V16    10.0   .     S
V4     V15    10.0   1_556     S
V5     V8    10.0   1_565     S
V5     V11    10.0   .     S
V5     V12    10.0   .     S
V6     V1    10.0   1_556     S
V6     V7    10.0   1_566     S
V6     V12    10.0   .     S
V6     V11    10.0   1_556     S
V7     V4    10.0   1_554     S
V7     V6    10.0   1_544     S
V7     V21    10.0   .     S
V7     V22    10.0   1_554     S
V8     V5    10.0   1_545     S
V8     V22    10.0   .     S
V8     V21    10.0   .     S
V9     V11    10.0   .     S
V9     V15    10.0   .     S
V9     V19    10.0   .     S
V9     V20    10.0   1_554     S
V10     V12    10.0   .     S
V10     V16    10.0   .     S
V10     V20    10.0   .     S
V10     V19    10.0   .     S
V11     V13    10.0   .     S
V11     V6    10.0   1_554     S
V12     V14    10.0   .     S
V13     V15    10.0   .     S
V13     V24    10.0   1_554     S
V13     V23    10.0   .     S
V14     V16    10.0   .     S
V14     V23    10.0   .     S
V14     V24    10.0   .     S
V15     V4    10.0   1_554     S
V17     V19    10.0   1_455     S
V17     V23    10.0   .     S
V18     V1    10.0   1_556     S
V18     V20    10.0   1_455     S
V18     V24    10.0   .     S
V19     V17    10.0   1_655     S
V19     V21    10.0   .     S
V20     V18    10.0   1_655     S
V20     V22    10.0   .     S
V20     V9    10.0   1_556     S
V21     V23    10.0   1_655     S
V22     V24    10.0   1_655     S
V22     V7    10.0   1_556     S
V23     V21    10.0   1_455     S
V24     V13    10.0   1_556     S
V24     V22    10.0   1_455     S
