data_uoy
_audit_creation_date              2019-12-31
_audit_creation_method            'Pymatgen'
_symmetry_space_group_name_H-M    'P1'
_symmetry_Int_Tables_number       1
loop_
_symmetry_equiv_pos_as_xyz
  x,y,z
_cell_length_a                    37.3606
_cell_length_b                    37.3606
_cell_length_c                    69.1978
_cell_angle_alpha                 90.0
_cell_angle_beta                 90.0
_cell_angle_gamma                 90.0
loop_
_atom_site_label
_atom_site_type_symbol
_atom_site_fract_x
_atom_site_fract_y
_atom_site_fract_z
V1     V     0.0478   0.125   0.816
V2     V     0.0478   0.625   0.816
V3     V     0.5478   0.125   0.816
V4     V     0.5478   0.625   0.816
V5     V     0.125   0.2022   0.684
V6     V     0.125   0.7022   0.684
V7     V     0.625   0.2022   0.684
V8     V     0.625   0.7022   0.684
V9     V     0.375   0.2978   0.684
V10     V     0.375   0.7978   0.684
V11     V     0.875   0.2978   0.684
V12     V     0.875   0.7978   0.684
V13     V     0.4522   0.375   0.816
V14     V     0.4522   0.875   0.816
V15     V     0.9522   0.375   0.816
V16     V     0.9522   0.875   0.816
V17     V     0.125   0.2022   0.066
V18     V     0.125   0.7022   0.066
V19     V     0.625   0.2022   0.066
V20     V     0.625   0.7022   0.066
V21     V     0.2022   0.125   0.934
V22     V     0.2022   0.625   0.934
V23     V     0.7022   0.125   0.934
V24     V     0.7022   0.625   0.934
V25     V     0.2978   0.375   0.934
V26     V     0.2978   0.875   0.934
V27     V     0.7978   0.375   0.934
V28     V     0.7978   0.875   0.934
V29     V     0.375   0.2978   0.066
V30     V     0.375   0.7978   0.066
V31     V     0.875   0.2978   0.066
V32     V     0.875   0.7978   0.066
V33     V     0.2978   0.375   0.316
V34     V     0.2978   0.875   0.316
V35     V     0.7978   0.375   0.316
V36     V     0.7978   0.875   0.316
V37     V     0.375   0.4522   0.184
V38     V     0.375   0.9522   0.184
V39     V     0.875   0.4522   0.184
V40     V     0.875   0.9522   0.184
V41     V     0.2022   0.125   0.316
V42     V     0.2022   0.625   0.316
V43     V     0.7022   0.125   0.316
V44     V     0.7022   0.625   0.316
V45     V     0.125   0.0478   0.184
V46     V     0.125   0.5478   0.184
V47     V     0.625   0.0478   0.184
V48     V     0.625   0.5478   0.184
V49     V     0.4522   0.375   0.434
V50     V     0.4522   0.875   0.434
V51     V     0.9522   0.375   0.434
V52     V     0.9522   0.875   0.434
V53     V     0.375   0.4522   0.566
V54     V     0.375   0.9522   0.566
V55     V     0.875   0.4522   0.566
V56     V     0.875   0.9522   0.566
V57     V     0.125   0.0478   0.566
V58     V     0.125   0.5478   0.566
V59     V     0.625   0.0478   0.566
V60     V     0.625   0.5478   0.566
V61     V     0.0478   0.125   0.434
V62     V     0.0478   0.625   0.434
V63     V     0.5478   0.125   0.434
V64     V     0.5478   0.625   0.434
loop_
_geom_bond_atom_site_label_1
_geom_bond_atom_site_label_2
_geom_bond_distance
_geom_bond_site_symmetry_2
_ccdc_geom_bond_type
V1     V5    10.0   .     S
V1     V16    10.0   1_445     S
V1     V15    10.0   1_455     S
V1     V21    10.001   .     S
V2     V6    10.0   .     S
V2     V15    10.0   1_455     S
V2     V16    10.0   1_455     S
V2     V22    10.001   .     S
V3     V7    10.0   .     S
V3     V14    10.0   1_545     S
V3     V13    10.0   .     S
V3     V23    10.001   .     S
V4     V8    10.0   .     S
V4     V13    10.0   .     S
V4     V14    10.0   .     S
V4     V24    10.001   .     S
V5     V9    10.0   .     S
V5     V11    10.0   1_455     S
V5     V57    10.001   .     S
V6     V10    10.0   .     S
V6     V12    10.0   1_455     S
V6     V58    10.001   .     S
V7     V11    10.0   .     S
V7     V9    10.0   .     S
V7     V59    10.001   .     S
V8     V12    10.0   .     S
V8     V10    10.0   .     S
V8     V60    10.001   .     S
V9     V13    10.0   .     S
V9     V53    10.001   .     S
V10     V14    10.0   .     S
V10     V54    10.001   .     S
V11     V15    10.0   .     S
V11     V5    10.0   1_655     S
V11     V55    10.001   .     S
V12     V16    10.0   .     S
V12     V6    10.0   1_655     S
V12     V56    10.001   .     S
V13     V25    10.001   .     S
V14     V3    10.0   1_565     S
V14     V26    10.001   .     S
V15     V2    10.0   1_655     S
V15     V1    10.0   1_655     S
V15     V27    10.001   .     S
V16     V1    10.0   1_665     S
V16     V2    10.0   1_655     S
V16     V28    10.001   .     S
V17     V21    10.0   1_554     S
V17     V31    10.0   1_455     S
V17     V29    10.0   .     S
V17     V45    10.001   .     S
V18     V22    10.0   1_554     S
V18     V32    10.0   1_455     S
V18     V30    10.0   .     S
V18     V46    10.001   .     S
V19     V23    10.0   1_554     S
V19     V29    10.0   .     S
V19     V31    10.0   .     S
V19     V47    10.001   .     S
V20     V24    10.0   1_554     S
V20     V30    10.0   .     S
V20     V32    10.0   .     S
V20     V48    10.001   .     S
V21     V17    10.0   1_556     S
V21     V26    10.0   1_545     S
V21     V25    10.0   .     S
V22     V18    10.0   1_556     S
V22     V25    10.0   .     S
V22     V26    10.0   .     S
V23     V19    10.0   1_556     S
V23     V28    10.0   1_545     S
V23     V27    10.0   .     S
V24     V20    10.0   1_556     S
V24     V27    10.0   .     S
V24     V28    10.0   .     S
V25     V29    10.0   1_556     S
V26     V30    10.0   1_556     S
V26     V21    10.0   1_565     S
V27     V31    10.0   1_556     S
V28     V32    10.0   1_556     S
V28     V23    10.0   1_565     S
V29     V25    10.0   1_554     S
V29     V37    10.001   .     S
V30     V26    10.0   1_554     S
V30     V38    10.001   .     S
V31     V27    10.0   1_554     S
V31     V17    10.0   1_655     S
V31     V39    10.001   .     S
V32     V28    10.0   1_554     S
V32     V18    10.0   1_655     S
V32     V40    10.001   .     S
V33     V37    10.0   .     S
V33     V41    10.0   .     S
V33     V42    10.0   .     S
V33     V49    10.001   .     S
V34     V38    10.0   .     S
V34     V42    10.0   .     S
V34     V41    10.0   1_565     S
V34     V50    10.001   .     S
V35     V39    10.0   .     S
V35     V43    10.0   .     S
V35     V44    10.0   .     S
V35     V51    10.001   .     S
V36     V40    10.0   .     S
V36     V44    10.0   .     S
V36     V43    10.0   1_565     S
V36     V52    10.001   .     S
V37     V48    10.0   .     S
V37     V46    10.0   .     S
V38     V47    10.0   1_565     S
V38     V45    10.0   1_565     S
V39     V46    10.0   1_655     S
V39     V48    10.0   .     S
V40     V45    10.0   1_665     S
V40     V47    10.0   1_565     S
V41     V34    10.0   1_545     S
V41     V45    10.0   .     S
V41     V61    10.001   .     S
V42     V46    10.0   .     S
V42     V62    10.001   .     S
V43     V36    10.0   1_545     S
V43     V47    10.0   .     S
V43     V63    10.001   .     S
V44     V48    10.0   .     S
V44     V64    10.001   .     S
V45     V40    10.0   1_445     S
V45     V38    10.0   1_545     S
V46     V39    10.0   1_455     S
V47     V38    10.0   1_545     S
V47     V40    10.0   1_545     S
V49     V53    10.0   .     S
V49     V63    10.0   .     S
V49     V64    10.0   .     S
V50     V54    10.0   .     S
V50     V64    10.0   .     S
V50     V63    10.0   1_565     S
V51     V55    10.0   .     S
V51     V61    10.0   1_655     S
V51     V62    10.0   1_655     S
V52     V56    10.0   .     S
V52     V62    10.0   1_655     S
V52     V61    10.0   1_665     S
V53     V58    10.0   .     S
V53     V60    10.0   .     S
V54     V57    10.0   1_565     S
V54     V59    10.0   1_565     S
V55     V60    10.0   .     S
V55     V58    10.0   1_655     S
V56     V59    10.0   1_565     S
V56     V57    10.0   1_665     S
V57     V61    10.0   .     S
V57     V54    10.0   1_545     S
V57     V56    10.0   1_445     S
V58     V62    10.0   .     S
V58     V55    10.0   1_455     S
V59     V63    10.0   .     S
V59     V56    10.0   1_545     S
V59     V54    10.0   1_545     S
V60     V64    10.0   .     S
V61     V51    10.0   1_455     S
V61     V52    10.0   1_445     S
V62     V52    10.0   1_455     S
V62     V51    10.0   1_455     S
V63     V50    10.0   1_545     S
