data_uoz
_audit_creation_date              2019-12-31
_audit_creation_method            'Pymatgen'
_symmetry_space_group_name_H-M    'P1'
_symmetry_Int_Tables_number       1
loop_
_symmetry_equiv_pos_as_xyz
  x,y,z
_cell_length_a                    39.9003
_cell_length_b                    39.9003
_cell_length_c                    29.3502
_cell_angle_alpha                 90.0
_cell_angle_beta                 90.0
_cell_angle_gamma                 90.0
loop_
_atom_site_label
_atom_site_type_symbol
_atom_site_fract_x
_atom_site_fract_y
_atom_site_fract_z
V1     V     0.8351   0.25   0.0
V2     V     0.8351   0.25   0.5
V3     V     0.0   0.4149   0.375
V4     V     0.0   0.4149   0.875
V5     V     0.0   0.0851   0.375
V6     V     0.0   0.0851   0.875
V7     V     0.1649   0.25   0.0
V8     V     0.1649   0.25   0.5
V9     V     0.0   0.5851   0.125
V10     V     0.0   0.5851   0.625
V11     V     0.8351   0.75   0.0
V12     V     0.8351   0.75   0.5
V13     V     0.1649   0.75   0.0
V14     V     0.1649   0.75   0.5
V15     V     0.0   0.9149   0.125
V16     V     0.0   0.9149   0.625
V17     V     0.5   0.9149   0.125
V18     V     0.5   0.9149   0.625
V19     V     0.6649   0.75   0.25
V20     V     0.6649   0.75   0.75
V21     V     0.5   0.5851   0.125
V22     V     0.5   0.5851   0.625
V23     V     0.3351   0.75   0.25
V24     V     0.3351   0.75   0.75
V25     V     0.5   0.4149   0.375
V26     V     0.5   0.4149   0.875
V27     V     0.6649   0.25   0.25
V28     V     0.6649   0.25   0.75
V29     V     0.5   0.0851   0.375
V30     V     0.5   0.0851   0.875
V31     V     0.3351   0.25   0.25
V32     V     0.3351   0.25   0.75
loop_
_geom_bond_atom_site_label_1
_geom_bond_atom_site_label_2
_geom_bond_distance
_geom_bond_site_symmetry_2
_ccdc_geom_bond_type
V1     V4    10.0   1_654     S
V1     V6    10.0   1_654     S
V1     V28    10.0   1_554     S
V1     V27    10.0   .     S
V2     V3    10.0   1_655     S
V2     V5    10.0   1_655     S
V2     V27    10.0   .     S
V2     V28    10.0   .     S
V3     V2    10.0   1_455     S
V3     V8    10.0   .     S
V3     V10    10.0   .     S
V3     V9    10.0   .     S
V4     V1    10.0   1_456     S
V4     V7    10.0   1_556     S
V4     V9    10.0   1_556     S
V4     V10    10.0   .     S
V5     V2    10.0   1_455     S
V5     V8    10.0   .     S
V5     V16    10.0   1_545     S
V5     V15    10.0   1_545     S
V6     V1    10.0   1_456     S
V6     V7    10.0   1_556     S
V6     V15    10.0   1_546     S
V6     V16    10.0   1_545     S
V7     V4    10.0   1_554     S
V7     V6    10.0   1_554     S
V7     V32    10.0   1_554     S
V7     V31    10.0   .     S
V8     V31    10.0   .     S
V8     V32    10.0   .     S
V9     V11    10.0   1_455     S
V9     V13    10.0   .     S
V9     V4    10.0   1_554     S
V10     V12    10.0   1_455     S
V10     V14    10.0   .     S
V11     V9    10.0   1_655     S
V11     V15    10.0   1_655     S
V11     V19    10.0   .     S
V11     V20    10.0   1_554     S
V12     V10    10.0   1_655     S
V12     V16    10.0   1_655     S
V12     V20    10.0   .     S
V12     V19    10.0   .     S
V13     V15    10.0   .     S
V13     V23    10.0   .     S
V13     V24    10.0   1_554     S
V14     V16    10.0   .     S
V14     V24    10.0   .     S
V14     V23    10.0   .     S
V15     V11    10.0   1_455     S
V15     V6    10.0   1_564     S
V15     V5    10.0   1_565     S
V16     V12    10.0   1_455     S
V16     V5    10.0   1_565     S
V16     V6    10.0   1_565     S
V17     V19    10.0   .     S
V17     V23    10.0   .     S
V17     V29    10.0   1_565     S
V17     V30    10.0   1_564     S
V18     V20    10.0   .     S
V18     V24    10.0   .     S
V18     V30    10.0   1_565     S
V18     V29    10.0   1_565     S
V19     V21    10.0   .     S
V20     V22    10.0   .     S
V20     V11    10.0   1_556     S
V21     V23    10.0   .     S
V21     V25    10.0   .     S
V21     V26    10.0   1_554     S
V22     V24    10.0   .     S
V22     V26    10.0   .     S
V22     V25    10.0   .     S
V24     V13    10.0   1_556     S
V25     V31    10.0   .     S
V25     V27    10.0   .     S
V26     V32    10.0   .     S
V26     V28    10.0   .     S
V26     V21    10.0   1_556     S
V27     V29    10.0   .     S
V28     V30    10.0   .     S
V28     V1    10.0   1_556     S
V29     V17    10.0   1_545     S
V29     V18    10.0   1_545     S
V29     V31    10.0   .     S
V30     V18    10.0   1_545     S
V30     V17    10.0   1_546     S
V30     V32    10.0   .     S
V32     V7    10.0   1_556     S
