data_upa
_audit_creation_date              2019-12-31
_audit_creation_method            'Pymatgen'
_symmetry_space_group_name_H-M    'P1'
_symmetry_Int_Tables_number       1
loop_
_symmetry_equiv_pos_as_xyz
  x,y,z
_cell_length_a                    37.0952
_cell_length_b                    37.0952
_cell_length_c                    26.8583
_cell_angle_alpha                 90.0
_cell_angle_beta                 90.0
_cell_angle_gamma                 90.0
loop_
_atom_site_label
_atom_site_type_symbol
_atom_site_fract_x
_atom_site_fract_y
_atom_site_fract_z
V1     V     0.1722   0.36   0.1835
V2     V     0.1722   0.86   0.1835
V3     V     0.6722   0.36   0.1835
V4     V     0.6722   0.86   0.1835
V5     V     0.4222   0.39   0.3165
V6     V     0.4222   0.89   0.3165
V7     V     0.9222   0.39   0.3165
V8     V     0.9222   0.89   0.3165
V9     V     0.0778   0.11   0.3165
V10     V     0.0778   0.61   0.3165
V11     V     0.5778   0.11   0.3165
V12     V     0.5778   0.61   0.3165
V13     V     0.3278   0.14   0.1835
V14     V     0.3278   0.64   0.1835
V15     V     0.8278   0.14   0.1835
V16     V     0.8278   0.64   0.1835
V17     V     0.36   0.1722   0.8165
V18     V     0.36   0.6722   0.8165
V19     V     0.86   0.1722   0.8165
V20     V     0.86   0.6722   0.8165
V21     V     0.39   0.4222   0.6835
V22     V     0.39   0.9222   0.6835
V23     V     0.89   0.4222   0.6835
V24     V     0.89   0.9222   0.6835
V25     V     0.14   0.3278   0.8165
V26     V     0.14   0.8278   0.8165
V27     V     0.64   0.3278   0.8165
V28     V     0.64   0.8278   0.8165
V29     V     0.11   0.0778   0.6835
V30     V     0.11   0.5778   0.6835
V31     V     0.61   0.0778   0.6835
V32     V     0.61   0.5778   0.6835
loop_
_geom_bond_atom_site_label_1
_geom_bond_atom_site_label_2
_geom_bond_distance
_geom_bond_site_symmetry_2
_ccdc_geom_bond_type
V1     V5    10.0   .     S
V1     V7    10.0   1_455     S
V1     V13    10.0   .     S
V1     V25    10.0   1_554     S
V2     V6    10.0   .     S
V2     V8    10.0   1_455     S
V2     V14    10.0   .     S
V2     V26    10.0   1_554     S
V3     V7    10.0   .     S
V3     V5    10.0   .     S
V3     V15    10.0   .     S
V3     V27    10.0   1_554     S
V4     V8    10.0   .     S
V4     V6    10.0   .     S
V4     V16    10.0   .     S
V4     V28    10.0   1_554     S
V5     V12    10.0   .     S
V5     V21    10.0   .     S
V6     V11    10.0   1_565     S
V6     V22    10.0   .     S
V7     V1    10.0   1_655     S
V7     V10    10.0   1_655     S
V7     V23    10.0   .     S
V8     V2    10.0   1_655     S
V8     V9    10.0   1_665     S
V8     V24    10.0   .     S
V9     V15    10.0   1_455     S
V9     V13    10.0   .     S
V9     V8    10.0   1_445     S
V9     V29    10.0   .     S
V10     V16    10.0   1_455     S
V10     V14    10.0   .     S
V10     V7    10.0   1_455     S
V10     V30    10.0   .     S
V11     V13    10.0   .     S
V11     V15    10.0   .     S
V11     V6    10.0   1_545     S
V11     V31    10.0   .     S
V12     V14    10.0   .     S
V12     V16    10.0   .     S
V12     V32    10.0   .     S
V13     V17    10.0   1_554     S
V14     V18    10.0   1_554     S
V15     V9    10.0   1_655     S
V15     V19    10.0   1_554     S
V16     V10    10.0   1_655     S
V16     V20    10.0   1_554     S
V17     V21    10.0   .     S
V17     V22    10.0   1_545     S
V17     V25    10.0   .     S
V17     V13    10.0   1_556     S
V18     V22    10.0   .     S
V18     V21    10.0   .     S
V18     V26    10.0   .     S
V18     V14    10.0   1_556     S
V19     V23    10.0   .     S
V19     V24    10.0   1_545     S
V19     V27    10.0   .     S
V19     V15    10.0   1_556     S
V20     V24    10.0   .     S
V20     V23    10.0   .     S
V20     V28    10.0   .     S
V20     V16    10.0   1_556     S
V21     V32    10.0   .     S
V22     V17    10.0   1_565     S
V22     V31    10.0   1_565     S
V23     V30    10.0   1_655     S
V24     V19    10.0   1_565     S
V24     V29    10.0   1_665     S
V25     V29    10.0   .     S
V25     V30    10.0   .     S
V25     V1    10.0   1_556     S
V26     V30    10.0   .     S
V26     V29    10.0   1_565     S
V26     V2    10.0   1_556     S
V27     V31    10.0   .     S
V27     V32    10.0   .     S
V27     V3    10.0   1_556     S
V28     V32    10.0   .     S
V28     V31    10.0   1_565     S
V28     V4    10.0   1_556     S
V29     V26    10.0   1_545     S
V29     V24    10.0   1_445     S
V30     V23    10.0   1_455     S
V31     V28    10.0   1_545     S
V31     V22    10.0   1_545     S
