data_urj
_audit_creation_date              2019-12-31
_audit_creation_method            'Pymatgen'
_symmetry_space_group_name_H-M    'P1'
_symmetry_Int_Tables_number       1
loop_
_symmetry_equiv_pos_as_xyz
  x,y,z
_cell_length_a                    28.2842
_cell_length_b                    28.2842
_cell_length_c                    28.2847
_cell_angle_alpha                 90.0
_cell_angle_beta                 90.0
_cell_angle_gamma                 90.0
loop_
_atom_site_label
_atom_site_type_symbol
_atom_site_fract_x
_atom_site_fract_y
_atom_site_fract_z
Ti1     Ti     0.25   0.25   0.75
Ti2     Ti     0.25   0.75   0.75
Ti3     Ti     0.75   0.25   0.75
Ti4     Ti     0.75   0.75   0.75
Er5     Er     0.25   0.0   0.5
Er6     Er     0.25   0.5   0.5
Er7     Er     0.75   0.0   0.5
Er8     Er     0.75   0.5   0.5
V9     V     0.0   0.25   0.5
V10     V     0.0   0.75   0.5
V11     V     0.5   0.25   0.5
V12     V     0.5   0.75   0.5
Ti13     Ti     0.25   0.25   0.25
Ti14     Ti     0.25   0.75   0.25
Ti15     Ti     0.75   0.25   0.25
Ti16     Ti     0.75   0.75   0.25
V17     V     0.25   0.0   0.0
V18     V     0.25   0.5   0.0
V19     V     0.75   0.0   0.0
V20     V     0.75   0.5   0.0
Er21     Er     0.0   0.25   0.0
Er22     Er     0.0   0.75   0.0
Er23     Er     0.5   0.25   0.0
Er24     Er     0.5   0.75   0.0
loop_
_geom_bond_atom_site_label_1
_geom_bond_atom_site_label_2
_geom_bond_distance
_geom_bond_site_symmetry_2
_ccdc_geom_bond_type
Ti1     Er5    10.0   .     S
Ti1     Er6    10.0   .     S
Ti1     Er21    10.0   1_556     S
Ti1     Er23    10.0   1_556     S
Ti2     Er6    10.0   .     S
Ti2     Er5    10.0   1_565     S
Ti2     Er22    10.0   1_556     S
Ti2     Er24    10.0   1_556     S
Ti3     Er7    10.0   .     S
Ti3     Er8    10.0   .     S
Ti3     Er23    10.0   1_556     S
Ti3     Er21    10.0   1_656     S
Ti4     Er8    10.0   .     S
Ti4     Er7    10.0   1_565     S
Ti4     Er24    10.0   1_556     S
Ti4     Er22    10.0   1_656     S
Er5     Ti2    10.0   1_545     S
Er5     V11    10.0   .     S
Er5     V10    10.0   1_545     S
Er5     V9    10.0   .     S
Er5     V12    10.0   1_545     S
Er5     Ti13    10.0   .     S
Er5     Ti14    10.0   1_545     S
Er6     V12    10.0   .     S
Er6     V9    10.0   .     S
Er6     V10    10.0   .     S
Er6     V11    10.0   .     S
Er6     Ti14    10.0   .     S
Er6     Ti13    10.0   .     S
Er7     Ti4    10.0   1_545     S
Er7     V9    10.0   1_655     S
Er7     V12    10.0   1_545     S
Er7     V11    10.0   .     S
Er7     V10    10.0   1_645     S
Er7     Ti15    10.0   .     S
Er7     Ti16    10.0   1_545     S
Er8     V10    10.0   1_655     S
Er8     V11    10.0   .     S
Er8     V12    10.0   .     S
Er8     V9    10.0   1_655     S
Er8     Ti16    10.0   .     S
Er8     Ti15    10.0   .     S
V9     Er7    10.0   1_455     S
V9     Er8    10.0   1_455     S
V10     Er8    10.0   1_455     S
V10     Er5    10.0   1_565     S
V10     Er7    10.0   1_465     S
V12     Er7    10.0   1_565     S
V12     Er5    10.0   1_565     S
Ti13     Er21    10.0   .     S
Ti13     Er23    10.0   .     S
Ti14     Er5    10.0   1_565     S
Ti14     Er22    10.0   .     S
Ti14     Er24    10.0   .     S
Ti15     Er23    10.0   .     S
Ti15     Er21    10.0   1_655     S
Ti16     Er7    10.0   1_565     S
Ti16     Er24    10.0   .     S
Ti16     Er22    10.0   1_655     S
V17     Er21    10.0   .     S
V17     Er24    10.0   1_545     S
V17     Er22    10.0   1_545     S
V17     Er23    10.0   .     S
V18     Er22    10.0   .     S
V18     Er23    10.0   .     S
V18     Er21    10.0   .     S
V18     Er24    10.0   .     S
V19     Er23    10.0   .     S
V19     Er22    10.0   1_645     S
V19     Er24    10.0   1_545     S
V19     Er21    10.0   1_655     S
V20     Er24    10.0   .     S
V20     Er21    10.0   1_655     S
V20     Er23    10.0   .     S
V20     Er22    10.0   1_655     S
Er21     V20    10.0   1_455     S
Er21     V19    10.0   1_455     S
Er21     Ti1    10.0   1_554     S
Er21     Ti3    10.0   1_454     S
Er21     Ti15    10.0   1_455     S
Er22     V19    10.0   1_465     S
Er22     V17    10.0   1_565     S
Er22     V20    10.0   1_455     S
Er22     Ti2    10.0   1_554     S
Er22     Ti4    10.0   1_454     S
Er22     Ti16    10.0   1_455     S
Er23     Ti3    10.0   1_554     S
Er23     Ti1    10.0   1_554     S
Er24     V17    10.0   1_565     S
Er24     V19    10.0   1_565     S
Er24     Ti4    10.0   1_554     S
Er24     Ti2    10.0   1_554     S
