data_urs
_audit_creation_date              2019-12-31
_audit_creation_method            'Pymatgen'
_symmetry_space_group_name_H-M    'P1'
_symmetry_Int_Tables_number       1
loop_
_symmetry_equiv_pos_as_xyz
  x,y,z
_cell_length_a                    34.6478
_cell_length_b                    34.6478
_cell_length_c                    24.4854
_cell_angle_alpha                 90.0
_cell_angle_beta                 90.0
_cell_angle_gamma                 90.0
loop_
_atom_site_label
_atom_site_type_symbol
_atom_site_fract_x
_atom_site_fract_y
_atom_site_fract_z
V1     V     0.0   0.0   0.0
V2     V     0.0   0.5   0.0
V3     V     0.5   0.0   0.0
V4     V     0.5   0.5   0.0
Ti5     Ti     0.0834   0.25   0.1665
Ti6     Ti     0.0834   0.75   0.1665
Ti7     Ti     0.5834   0.25   0.1665
Ti8     Ti     0.5834   0.75   0.1665
Ti9     Ti     0.25   0.0834   0.1665
Ti10     Ti     0.25   0.5834   0.1665
Ti11     Ti     0.75   0.0834   0.1665
Ti12     Ti     0.75   0.5834   0.1665
Ti13     Ti     0.4166   0.25   0.1665
Ti14     Ti     0.4166   0.75   0.1665
Ti15     Ti     0.9166   0.25   0.1665
Ti16     Ti     0.9166   0.75   0.1665
Ti17     Ti     0.25   0.4166   0.1665
Ti18     Ti     0.25   0.9166   0.1665
Ti19     Ti     0.75   0.4166   0.1665
Ti20     Ti     0.75   0.9166   0.1665
Ti21     Ti     0.0834   0.25   0.8335
Ti22     Ti     0.0834   0.75   0.8335
Ti23     Ti     0.5834   0.25   0.8335
Ti24     Ti     0.5834   0.75   0.8335
Ti25     Ti     0.25   0.0834   0.8335
Ti26     Ti     0.25   0.5834   0.8335
Ti27     Ti     0.75   0.0834   0.8335
Ti28     Ti     0.75   0.5834   0.8335
Ti29     Ti     0.4166   0.25   0.8335
Ti30     Ti     0.4166   0.75   0.8335
Ti31     Ti     0.9166   0.25   0.8335
Ti32     Ti     0.9166   0.75   0.8335
Ti33     Ti     0.25   0.4166   0.8335
Ti34     Ti     0.25   0.9166   0.8335
Ti35     Ti     0.75   0.4166   0.8335
Ti36     Ti     0.75   0.9166   0.8335
Er37     Er     0.25   0.25   0.5
Er38     Er     0.25   0.75   0.5
Er39     Er     0.75   0.25   0.5
Er40     Er     0.75   0.75   0.5
loop_
_geom_bond_atom_site_label_1
_geom_bond_atom_site_label_2
_geom_bond_distance
_geom_bond_site_symmetry_2
_ccdc_geom_bond_type
V1     Ti18    10.0   1_545     S
V1     Ti9    10.0   .     S
V1     Ti25    10.0   1_554     S
V1     Ti34    10.0   1_544     S
V1     Ti5    10.0   .     S
V1     Ti15    10.0   1_455     S
V1     Ti31    10.0   1_454     S
V1     Ti21    10.0   1_554     S
V1     Ti11    10.0   1_455     S
V1     Ti20    10.0   1_445     S
V1     Ti36    10.0   1_444     S
V1     Ti27    10.0   1_454     S
V1     Ti16    10.0   1_445     S
V1     Ti6    10.0   1_545     S
V1     Ti22    10.0   1_544     S
V1     Ti32    10.0   1_444     S
V2     Ti17    10.0   .     S
V2     Ti10    10.0   .     S
V2     Ti26    10.0   1_554     S
V2     Ti33    10.0   1_554     S
V2     Ti6    10.0   .     S
V2     Ti16    10.0   1_455     S
V2     Ti32    10.0   1_454     S
V2     Ti22    10.0   1_554     S
V2     Ti12    10.0   1_455     S
V2     Ti19    10.0   1_455     S
V2     Ti35    10.0   1_454     S
V2     Ti28    10.0   1_454     S
V2     Ti15    10.0   1_455     S
V2     Ti5    10.0   .     S
V2     Ti21    10.0   1_554     S
V2     Ti31    10.0   1_454     S
V3     Ti20    10.0   1_545     S
V3     Ti11    10.0   .     S
V3     Ti27    10.0   1_554     S
V3     Ti36    10.0   1_544     S
V3     Ti7    10.0   .     S
V3     Ti13    10.0   .     S
V3     Ti29    10.0   1_554     S
V3     Ti23    10.0   1_554     S
V3     Ti9    10.0   .     S
V3     Ti18    10.0   1_545     S
V3     Ti34    10.0   1_544     S
V3     Ti25    10.0   1_554     S
V3     Ti14    10.0   1_545     S
V3     Ti8    10.0   1_545     S
V3     Ti24    10.0   1_544     S
V3     Ti30    10.0   1_544     S
V4     Ti19    10.0   .     S
V4     Ti12    10.0   .     S
V4     Ti28    10.0   1_554     S
V4     Ti35    10.0   1_554     S
V4     Ti8    10.0   .     S
V4     Ti14    10.0   .     S
V4     Ti30    10.0   1_554     S
V4     Ti24    10.0   1_554     S
V4     Ti10    10.0   .     S
V4     Ti17    10.0   .     S
V4     Ti33    10.0   1_554     S
V4     Ti26    10.0   1_554     S
V4     Ti13    10.0   .     S
V4     Ti7    10.0   .     S
V4     Ti23    10.0   1_554     S
V4     Ti29    10.0   1_554     S
Ti5     Er37    10.0   .     S
Ti6     V1    10.0   1_565     S
Ti6     Er38    10.0   .     S
Ti7     Er39    10.0   .     S
Ti8     V3    10.0   1_565     S
Ti8     Er40    10.0   .     S
Ti9     Er37    10.0   .     S
Ti10     Er38    10.0   .     S
Ti11     V1    10.0   1_655     S
Ti11     Er39    10.0   .     S
Ti12     V2    10.0   1_655     S
Ti12     Er40    10.0   .     S
Ti13     Er37    10.0   .     S
Ti14     V3    10.0   1_565     S
Ti14     Er38    10.0   .     S
Ti15     V1    10.0   1_655     S
Ti15     V2    10.0   1_655     S
Ti15     Er39    10.0   .     S
Ti16     V2    10.0   1_655     S
Ti16     V1    10.0   1_665     S
Ti16     Er40    10.0   .     S
Ti17     Er37    10.0   .     S
Ti18     V1    10.0   1_565     S
Ti18     V3    10.0   1_565     S
Ti18     Er38    10.0   .     S
Ti19     V2    10.0   1_655     S
Ti19     Er39    10.0   .     S
Ti20     V3    10.0   1_565     S
Ti20     V1    10.0   1_665     S
Ti20     Er40    10.0   .     S
Ti21     Er37    10.0   .     S
Ti21     V1    10.0   1_556     S
Ti21     V2    10.0   1_556     S
Ti22     Er38    10.0   .     S
Ti22     V2    10.0   1_556     S
Ti22     V1    10.0   1_566     S
Ti23     Er39    10.0   .     S
Ti23     V3    10.0   1_556     S
Ti23     V4    10.0   1_556     S
Ti24     Er40    10.0   .     S
Ti24     V4    10.0   1_556     S
Ti24     V3    10.0   1_566     S
Ti25     Er37    10.0   .     S
Ti25     V1    10.0   1_556     S
Ti25     V3    10.0   1_556     S
Ti26     Er38    10.0   .     S
Ti26     V2    10.0   1_556     S
Ti26     V4    10.0   1_556     S
Ti27     Er39    10.0   .     S
Ti27     V3    10.0   1_556     S
Ti27     V1    10.0   1_656     S
Ti28     Er40    10.0   .     S
Ti28     V4    10.0   1_556     S
Ti28     V2    10.0   1_656     S
Ti29     Er37    10.0   .     S
Ti29     V3    10.0   1_556     S
Ti29     V4    10.0   1_556     S
Ti30     Er38    10.0   .     S
Ti30     V4    10.0   1_556     S
Ti30     V3    10.0   1_566     S
Ti31     Er39    10.0   .     S
Ti31     V1    10.0   1_656     S
Ti31     V2    10.0   1_656     S
Ti32     Er40    10.0   .     S
Ti32     V2    10.0   1_656     S
Ti32     V1    10.0   1_666     S
Ti33     Er37    10.0   .     S
Ti33     V2    10.0   1_556     S
Ti33     V4    10.0   1_556     S
Ti34     Er38    10.0   .     S
Ti34     V1    10.0   1_566     S
Ti34     V3    10.0   1_566     S
Ti35     Er39    10.0   .     S
Ti35     V4    10.0   1_556     S
Ti35     V2    10.0   1_656     S
Ti36     Er40    10.0   .     S
Ti36     V3    10.0   1_566     S
Ti36     V1    10.0   1_666     S
