data_uru
_audit_creation_date              2019-12-31
_audit_creation_method            'Pymatgen'
_symmetry_space_group_name_H-M    'P1'
_symmetry_Int_Tables_number       1
loop_
_symmetry_equiv_pos_as_xyz
  x,y,z
_cell_length_a                    37.7814
_cell_length_b                    37.7814
_cell_length_c                    37.7814
_cell_angle_alpha                 90.0
_cell_angle_beta                 90.0
_cell_angle_gamma                 90.0
loop_
_atom_site_label
_atom_site_type_symbol
_atom_site_fract_x
_atom_site_fract_y
_atom_site_fract_z
Ti1     Ti     0.0657   0.25   0.0657
Ti2     Ti     0.0657   0.25   0.5657
Ti3     Ti     0.0657   0.75   0.0657
Ti4     Ti     0.0657   0.75   0.5657
Ti5     Ti     0.5657   0.25   0.0657
Ti6     Ti     0.5657   0.25   0.5657
Ti7     Ti     0.5657   0.75   0.0657
Ti8     Ti     0.5657   0.75   0.5657
Ti9     Ti     0.4343   0.25   0.0657
Ti10     Ti     0.4343   0.25   0.5657
Ti11     Ti     0.4343   0.75   0.0657
Ti12     Ti     0.4343   0.75   0.5657
Ti13     Ti     0.9343   0.25   0.0657
Ti14     Ti     0.9343   0.25   0.5657
Ti15     Ti     0.9343   0.75   0.0657
Ti16     Ti     0.9343   0.75   0.5657
Ti17     Ti     0.25   0.4343   0.0657
Ti18     Ti     0.25   0.4343   0.5657
Ti19     Ti     0.25   0.9343   0.0657
Ti20     Ti     0.25   0.9343   0.5657
Ti21     Ti     0.75   0.4343   0.0657
Ti22     Ti     0.75   0.4343   0.5657
Ti23     Ti     0.75   0.9343   0.0657
Ti24     Ti     0.75   0.9343   0.5657
Ti25     Ti     0.0657   0.4343   0.25
Ti26     Ti     0.0657   0.4343   0.75
Ti27     Ti     0.0657   0.9343   0.25
Ti28     Ti     0.0657   0.9343   0.75
Ti29     Ti     0.5657   0.4343   0.25
Ti30     Ti     0.5657   0.4343   0.75
Ti31     Ti     0.5657   0.9343   0.25
Ti32     Ti     0.5657   0.9343   0.75
Ti33     Ti     0.0657   0.25   0.4343
Ti34     Ti     0.0657   0.25   0.9343
Ti35     Ti     0.0657   0.75   0.4343
Ti36     Ti     0.0657   0.75   0.9343
Ti37     Ti     0.5657   0.25   0.4343
Ti38     Ti     0.5657   0.25   0.9343
Ti39     Ti     0.5657   0.75   0.4343
Ti40     Ti     0.5657   0.75   0.9343
Ti41     Ti     0.0657   0.0657   0.25
Ti42     Ti     0.0657   0.0657   0.75
Ti43     Ti     0.0657   0.5657   0.25
Ti44     Ti     0.0657   0.5657   0.75
Ti45     Ti     0.5657   0.0657   0.25
Ti46     Ti     0.5657   0.0657   0.75
Ti47     Ti     0.5657   0.5657   0.25
Ti48     Ti     0.5657   0.5657   0.75
Ti49     Ti     0.4343   0.25   0.4343
Ti50     Ti     0.4343   0.25   0.9343
Ti51     Ti     0.4343   0.75   0.4343
Ti52     Ti     0.4343   0.75   0.9343
Ti53     Ti     0.9343   0.25   0.4343
Ti54     Ti     0.9343   0.25   0.9343
Ti55     Ti     0.9343   0.75   0.4343
Ti56     Ti     0.9343   0.75   0.9343
Ti57     Ti     0.25   0.4343   0.4343
Ti58     Ti     0.25   0.4343   0.9343
Ti59     Ti     0.25   0.9343   0.4343
Ti60     Ti     0.25   0.9343   0.9343
Ti61     Ti     0.75   0.4343   0.4343
Ti62     Ti     0.75   0.4343   0.9343
Ti63     Ti     0.75   0.9343   0.4343
Ti64     Ti     0.75   0.9343   0.9343
Ti65     Ti     0.4343   0.4343   0.25
Ti66     Ti     0.4343   0.4343   0.75
Ti67     Ti     0.4343   0.9343   0.25
Ti68     Ti     0.4343   0.9343   0.75
Ti69     Ti     0.9343   0.4343   0.25
Ti70     Ti     0.9343   0.4343   0.75
Ti71     Ti     0.9343   0.9343   0.25
Ti72     Ti     0.9343   0.9343   0.75
Er73     Er     0.25   0.25   0.25
Er74     Er     0.25   0.25   0.75
Er75     Er     0.25   0.75   0.25
Er76     Er     0.25   0.75   0.75
Er77     Er     0.75   0.25   0.25
Er78     Er     0.75   0.25   0.75
Er79     Er     0.75   0.75   0.25
Er80     Er     0.75   0.75   0.75
Ti81     Ti     0.25   0.0657   0.0657
Ti82     Ti     0.25   0.0657   0.5657
Ti83     Ti     0.25   0.5657   0.0657
Ti84     Ti     0.25   0.5657   0.5657
Ti85     Ti     0.75   0.0657   0.0657
Ti86     Ti     0.75   0.0657   0.5657
Ti87     Ti     0.75   0.5657   0.0657
Ti88     Ti     0.75   0.5657   0.5657
Ti89     Ti     0.4343   0.0657   0.25
Ti90     Ti     0.4343   0.0657   0.75
Ti91     Ti     0.4343   0.5657   0.25
Ti92     Ti     0.4343   0.5657   0.75
Ti93     Ti     0.9343   0.0657   0.25
Ti94     Ti     0.9343   0.0657   0.75
Ti95     Ti     0.9343   0.5657   0.25
Ti96     Ti     0.9343   0.5657   0.75
Ti97     Ti     0.25   0.0657   0.4343
Ti98     Ti     0.25   0.0657   0.9343
Ti99     Ti     0.25   0.5657   0.4343
Ti100     Ti     0.25   0.5657   0.9343
Ti101     Ti     0.75   0.0657   0.4343
Ti102     Ti     0.75   0.0657   0.9343
Ti103     Ti     0.75   0.5657   0.4343
Ti104     Ti     0.75   0.5657   0.9343
V105     V     0.0   0.0   0.0
V106     V     0.0   0.0   0.5
V107     V     0.0   0.5   0.0
V108     V     0.0   0.5   0.5
V109     V     0.5   0.0   0.0
V110     V     0.5   0.0   0.5
V111     V     0.5   0.5   0.0
V112     V     0.5   0.5   0.5
loop_
_geom_bond_atom_site_label_1
_geom_bond_atom_site_label_2
_geom_bond_distance
_geom_bond_site_symmetry_2
_ccdc_geom_bond_type
Ti1     Er73    9.845   .     S
Ti1     V107    10.077   .     S
Ti1     V105    10.077   .     S
Ti2     Er74    9.845   .     S
Ti2     V108    10.077   .     S
Ti2     V106    10.077   .     S
Ti3     Er75    9.845   .     S
Ti3     V105    10.077   1_565     S
Ti3     V107    10.077   .     S
Ti4     Er76    9.845   .     S
Ti4     V106    10.077   1_565     S
Ti4     V108    10.077   .     S
Ti5     Er77    9.845   .     S
Ti5     V111    10.077   .     S
Ti5     V109    10.077   .     S
Ti6     Er78    9.845   .     S
Ti6     V112    10.077   .     S
Ti6     V110    10.077   .     S
Ti7     Er79    9.845   .     S
Ti7     V109    10.077   1_565     S
Ti7     V111    10.077   .     S
Ti8     Er80    9.845   .     S
Ti8     V110    10.077   1_565     S
Ti8     V112    10.077   .     S
Ti9     Er73    9.845   .     S
Ti9     V111    10.077   .     S
Ti9     V109    10.077   .     S
Ti10     Er74    9.845   .     S
Ti10     V112    10.077   .     S
Ti10     V110    10.077   .     S
Ti11     Er75    9.845   .     S
Ti11     V109    10.077   1_565     S
Ti11     V111    10.077   .     S
Ti12     Er76    9.845   .     S
Ti12     V110    10.077   1_565     S
Ti12     V112    10.077   .     S
Ti13     Er77    9.845   .     S
Ti13     V107    10.077   1_655     S
Ti13     V105    10.077   1_655     S
Ti14     Er78    9.845   .     S
Ti14     V108    10.077   1_655     S
Ti14     V106    10.077   1_655     S
Ti15     Er79    9.845   .     S
Ti15     V105    10.077   1_665     S
Ti15     V107    10.077   1_655     S
Ti16     Er80    9.845   .     S
Ti16     V106    10.077   1_665     S
Ti16     V108    10.077   1_655     S
Ti17     Er73    9.845   .     S
Ti17     V111    10.077   .     S
Ti17     V107    10.077   .     S
Ti18     Er74    9.845   .     S
Ti18     V112    10.077   .     S
Ti18     V108    10.077   .     S
Ti19     Er75    9.845   .     S
Ti19     V109    10.077   1_565     S
Ti19     V105    10.077   1_565     S
Ti20     Er76    9.845   .     S
Ti20     V110    10.077   1_565     S
Ti20     V106    10.077   1_565     S
Ti21     Er77    9.845   .     S
Ti21     V107    10.077   1_655     S
Ti21     V111    10.077   .     S
Ti22     Er78    9.845   .     S
Ti22     V108    10.077   1_655     S
Ti22     V112    10.077   .     S
Ti23     Er79    9.845   .     S
Ti23     V105    10.077   1_665     S
Ti23     V109    10.077   1_565     S
Ti24     Er80    9.845   .     S
Ti24     V106    10.077   1_665     S
Ti24     V110    10.077   1_565     S
Ti25     Er73    9.845   .     S
Ti25     V107    10.077   .     S
Ti25     V108    10.077   .     S
Ti26     Er74    9.845   .     S
Ti26     V108    10.077   .     S
Ti26     V107    10.077   1_556     S
Ti27     Er75    9.845   .     S
Ti27     V105    10.077   1_565     S
Ti27     V106    10.077   1_565     S
Ti28     Er76    9.845   .     S
Ti28     V106    10.077   1_565     S
Ti28     V105    10.077   1_566     S
Ti29     Er77    9.845   .     S
Ti29     V111    10.077   .     S
Ti29     V112    10.077   .     S
Ti30     Er78    9.845   .     S
Ti30     V112    10.077   .     S
Ti30     V111    10.077   1_556     S
Ti31     Er79    9.845   .     S
Ti31     V109    10.077   1_565     S
Ti31     V110    10.077   1_565     S
Ti32     Er80    9.845   .     S
Ti32     V110    10.077   1_565     S
Ti32     V109    10.077   1_566     S
Ti33     Er73    9.845   .     S
Ti33     V108    10.077   .     S
Ti33     V106    10.077   .     S
Ti34     Er74    9.845   .     S
Ti34     V107    10.077   1_556     S
Ti34     V105    10.077   1_556     S
Ti35     Er75    9.845   .     S
Ti35     V106    10.077   1_565     S
Ti35     V108    10.077   .     S
Ti36     Er76    9.845   .     S
Ti36     V105    10.077   1_566     S
Ti36     V107    10.077   1_556     S
Ti37     Er77    9.845   .     S
Ti37     V112    10.077   .     S
Ti37     V110    10.077   .     S
Ti38     Er78    9.845   .     S
Ti38     V111    10.077   1_556     S
Ti38     V109    10.077   1_556     S
Ti39     Er79    9.845   .     S
Ti39     V110    10.077   1_565     S
Ti39     V112    10.077   .     S
Ti40     Er80    9.845   .     S
Ti40     V109    10.077   1_566     S
Ti40     V111    10.077   1_556     S
Ti41     Er73    9.845   .     S
Ti41     V105    10.077   .     S
Ti41     V106    10.077   .     S
Ti42     Er74    9.845   .     S
Ti42     V106    10.077   .     S
Ti42     V105    10.077   1_556     S
Ti43     Er75    9.845   .     S
Ti43     V107    10.077   .     S
Ti43     V108    10.077   .     S
Ti44     Er76    9.845   .     S
Ti44     V108    10.077   .     S
Ti44     V107    10.077   1_556     S
Ti45     Er77    9.845   .     S
Ti45     V109    10.077   .     S
Ti45     V110    10.077   .     S
Ti46     Er78    9.845   .     S
Ti46     V110    10.077   .     S
Ti46     V109    10.077   1_556     S
Ti47     Er79    9.845   .     S
Ti47     V111    10.077   .     S
Ti47     V112    10.077   .     S
Ti48     Er80    9.845   .     S
Ti48     V112    10.077   .     S
Ti48     V111    10.077   1_556     S
Ti49     Er73    9.845   .     S
Ti49     V112    10.077   .     S
Ti49     V110    10.077   .     S
Ti50     Er74    9.845   .     S
Ti50     V111    10.077   1_556     S
Ti50     V109    10.077   1_556     S
Ti51     Er75    9.845   .     S
Ti51     V110    10.077   1_565     S
Ti51     V112    10.077   .     S
Ti52     Er76    9.845   .     S
Ti52     V109    10.077   1_566     S
Ti52     V111    10.077   1_556     S
Ti53     Er77    9.845   .     S
Ti53     V108    10.077   1_655     S
Ti53     V106    10.077   1_655     S
Ti54     Er78    9.845   .     S
Ti54     V107    10.077   1_656     S
Ti54     V105    10.077   1_656     S
Ti55     Er79    9.845   .     S
Ti55     V106    10.077   1_665     S
Ti55     V108    10.077   1_655     S
Ti56     Er80    9.845   .     S
Ti56     V105    10.077   1_666     S
Ti56     V107    10.077   1_656     S
Ti57     Er73    9.845   .     S
Ti57     V112    10.077   .     S
Ti57     V108    10.077   .     S
Ti58     Er74    9.845   .     S
Ti58     V111    10.077   1_556     S
Ti58     V107    10.077   1_556     S
Ti59     Er75    9.845   .     S
Ti59     V110    10.077   1_565     S
Ti59     V106    10.077   1_565     S
Ti60     Er76    9.845   .     S
Ti60     V109    10.077   1_566     S
Ti60     V105    10.077   1_566     S
Ti61     Er77    9.845   .     S
Ti61     V108    10.077   1_655     S
Ti61     V112    10.077   .     S
Ti62     Er78    9.845   .     S
Ti62     V107    10.077   1_656     S
Ti62     V111    10.077   1_556     S
Ti63     Er79    9.845   .     S
Ti63     V106    10.077   1_665     S
Ti63     V110    10.077   1_565     S
Ti64     Er80    9.845   .     S
Ti64     V105    10.077   1_666     S
Ti64     V109    10.077   1_566     S
Ti65     Er73    9.845   .     S
Ti65     V111    10.077   .     S
Ti65     V112    10.077   .     S
Ti66     Er74    9.845   .     S
Ti66     V112    10.077   .     S
Ti66     V111    10.077   1_556     S
Ti67     Er75    9.845   .     S
Ti67     V109    10.077   1_565     S
Ti67     V110    10.077   1_565     S
Ti68     Er76    9.845   .     S
Ti68     V110    10.077   1_565     S
Ti68     V109    10.077   1_566     S
Ti69     Er77    9.845   .     S
Ti69     V107    10.077   1_655     S
Ti69     V108    10.077   1_655     S
Ti70     Er78    9.845   .     S
Ti70     V108    10.077   1_655     S
Ti70     V107    10.077   1_656     S
Ti71     Er79    9.845   .     S
Ti71     V105    10.077   1_665     S
Ti71     V106    10.077   1_665     S
Ti72     Er80    9.845   .     S
Ti72     V106    10.077   1_665     S
Ti72     V105    10.077   1_666     S
Er73     Ti81    9.845   .     S
Er73     Ti89    9.845   .     S
Er73     Ti97    9.845   .     S
Er74     Ti82    9.845   .     S
Er74     Ti90    9.845   .     S
Er74     Ti98    9.845   .     S
Er75     Ti83    9.845   .     S
Er75     Ti91    9.845   .     S
Er75     Ti99    9.845   .     S
Er76     Ti84    9.845   .     S
Er76     Ti92    9.845   .     S
Er76     Ti100    9.845   .     S
Er77     Ti85    9.845   .     S
Er77     Ti93    9.845   .     S
Er77     Ti101    9.845   .     S
Er78     Ti86    9.845   .     S
Er78     Ti94    9.845   .     S
Er78     Ti102    9.845   .     S
Er79     Ti87    9.845   .     S
Er79     Ti95    9.845   .     S
Er79     Ti103    9.845   .     S
Er80     Ti88    9.845   .     S
Er80     Ti96    9.845   .     S
Er80     Ti104    9.845   .     S
Ti81     V109    10.077   .     S
Ti81     V105    10.077   .     S
Ti82     V110    10.077   .     S
Ti82     V106    10.077   .     S
Ti83     V111    10.077   .     S
Ti83     V107    10.077   .     S
Ti84     V112    10.077   .     S
Ti84     V108    10.077   .     S
Ti85     V105    10.077   1_655     S
Ti85     V109    10.077   .     S
Ti86     V106    10.077   1_655     S
Ti86     V110    10.077   .     S
Ti87     V107    10.077   1_655     S
Ti87     V111    10.077   .     S
Ti88     V108    10.077   1_655     S
Ti88     V112    10.077   .     S
Ti89     V109    10.077   .     S
Ti89     V110    10.077   .     S
Ti90     V110    10.077   .     S
Ti90     V109    10.077   1_556     S
Ti91     V111    10.077   .     S
Ti91     V112    10.077   .     S
Ti92     V112    10.077   .     S
Ti92     V111    10.077   1_556     S
Ti93     V105    10.077   1_655     S
Ti93     V106    10.077   1_655     S
Ti94     V106    10.077   1_655     S
Ti94     V105    10.077   1_656     S
Ti95     V107    10.077   1_655     S
Ti95     V108    10.077   1_655     S
Ti96     V108    10.077   1_655     S
Ti96     V107    10.077   1_656     S
Ti97     V110    10.077   .     S
Ti97     V106    10.077   .     S
Ti98     V109    10.077   1_556     S
Ti98     V105    10.077   1_556     S
Ti99     V112    10.077   .     S
Ti99     V108    10.077   .     S
Ti100     V111    10.077   1_556     S
Ti100     V107    10.077   1_556     S
Ti101     V106    10.077   1_655     S
Ti101     V110    10.077   .     S
Ti102     V105    10.077   1_656     S
Ti102     V109    10.077   1_556     S
Ti103     V108    10.077   1_655     S
Ti103     V112    10.077   .     S
Ti104     V107    10.077   1_656     S
Ti104     V111    10.077   1_556     S
V105     Ti3    10.077   1_545     S
V105     Ti36    10.077   1_544     S
V105     Ti56    10.077   1_444     S
V105     Ti15    10.077   1_445     S
V105     Ti23    10.077   1_445     S
V105     Ti64    10.077   1_444     S
V105     Ti102    10.077   1_454     S
V105     Ti85    10.077   1_455     S
V105     Ti13    10.077   1_455     S
V105     Ti34    10.077   1_554     S
V105     Ti54    10.077   1_454     S
V105     Ti93    10.077   1_455     S
V105     Ti71    10.077   1_445     S
V105     Ti27    10.077   1_545     S
V105     Ti28    10.077   1_544     S
V105     Ti42    10.077   1_554     S
V105     Ti94    10.077   1_454     S
V105     Ti72    10.077   1_444     S
V105     Ti60    10.077   1_544     S
V105     Ti98    10.077   1_554     S
V105     Ti19    10.077   1_545     S
V106     Ti4    10.077   1_545     S
V106     Ti35    10.077   1_545     S
V106     Ti55    10.077   1_445     S
V106     Ti16    10.077   1_445     S
V106     Ti24    10.077   1_445     S
V106     Ti63    10.077   1_445     S
V106     Ti101    10.077   1_455     S
V106     Ti86    10.077   1_455     S
V106     Ti14    10.077   1_455     S
V106     Ti53    10.077   1_455     S
V106     Ti94    10.077   1_455     S
V106     Ti72    10.077   1_445     S
V106     Ti28    10.077   1_545     S
V106     Ti27    10.077   1_545     S
V106     Ti93    10.077   1_455     S
V106     Ti71    10.077   1_445     S
V106     Ti59    10.077   1_545     S
V106     Ti20    10.077   1_545     S
V107     Ti34    10.077   1_554     S
V107     Ti54    10.077   1_454     S
V107     Ti13    10.077   1_455     S
V107     Ti21    10.077   1_455     S
V107     Ti62    10.077   1_454     S
V107     Ti104    10.077   1_454     S
V107     Ti87    10.077   1_455     S
V107     Ti15    10.077   1_455     S
V107     Ti36    10.077   1_554     S
V107     Ti56    10.077   1_454     S
V107     Ti95    10.077   1_455     S
V107     Ti69    10.077   1_455     S
V107     Ti26    10.077   1_554     S
V107     Ti44    10.077   1_554     S
V107     Ti96    10.077   1_454     S
V107     Ti70    10.077   1_454     S
V107     Ti58    10.077   1_554     S
V107     Ti100    10.077   1_554     S
V108     Ti53    10.077   1_455     S
V108     Ti14    10.077   1_455     S
V108     Ti22    10.077   1_455     S
V108     Ti61    10.077   1_455     S
V108     Ti103    10.077   1_455     S
V108     Ti88    10.077   1_455     S
V108     Ti16    10.077   1_455     S
V108     Ti55    10.077   1_455     S
V108     Ti96    10.077   1_455     S
V108     Ti70    10.077   1_455     S
V108     Ti95    10.077   1_455     S
V108     Ti69    10.077   1_455     S
V109     Ti7    10.077   1_545     S
V109     Ti40    10.077   1_544     S
V109     Ti52    10.077   1_544     S
V109     Ti11    10.077   1_545     S
V109     Ti19    10.077   1_545     S
V109     Ti60    10.077   1_544     S
V109     Ti98    10.077   1_554     S
V109     Ti38    10.077   1_554     S
V109     Ti50    10.077   1_554     S
V109     Ti67    10.077   1_545     S
V109     Ti31    10.077   1_545     S
V109     Ti32    10.077   1_544     S
V109     Ti46    10.077   1_554     S
V109     Ti90    10.077   1_554     S
V109     Ti68    10.077   1_544     S
V109     Ti64    10.077   1_544     S
V109     Ti102    10.077   1_554     S
V109     Ti23    10.077   1_545     S
V110     Ti8    10.077   1_545     S
V110     Ti39    10.077   1_545     S
V110     Ti51    10.077   1_545     S
V110     Ti12    10.077   1_545     S
V110     Ti20    10.077   1_545     S
V110     Ti59    10.077   1_545     S
V110     Ti68    10.077   1_545     S
V110     Ti32    10.077   1_545     S
V110     Ti31    10.077   1_545     S
V110     Ti67    10.077   1_545     S
V110     Ti63    10.077   1_545     S
V110     Ti24    10.077   1_545     S
V111     Ti38    10.077   1_554     S
V111     Ti50    10.077   1_554     S
V111     Ti58    10.077   1_554     S
V111     Ti100    10.077   1_554     S
V111     Ti40    10.077   1_554     S
V111     Ti52    10.077   1_554     S
V111     Ti30    10.077   1_554     S
V111     Ti48    10.077   1_554     S
V111     Ti92    10.077   1_554     S
V111     Ti66    10.077   1_554     S
V111     Ti62    10.077   1_554     S
V111     Ti104    10.077   1_554     S
