data_urx
_audit_creation_date              2019-12-31
_audit_creation_method            'Pymatgen'
_symmetry_space_group_name_H-M    'P1'
_symmetry_Int_Tables_number       1
loop_
_symmetry_equiv_pos_as_xyz
  x,y,z
_cell_length_a                    36.8226
_cell_length_b                    36.8226
_cell_length_c                    51.4004
_cell_angle_alpha                 90.0
_cell_angle_beta                 90.0
_cell_angle_gamma                 120.0
loop_
_atom_site_label
_atom_site_type_symbol
_atom_site_fract_x
_atom_site_fract_y
_atom_site_fract_z
Er1     Er     0.1667   0.3333   0.25
Er2     Er     0.1667   0.8333   0.25
Er3     Er     0.6667   0.3333   0.25
Er4     Er     0.6667   0.8333   0.25
V5     V     0.0   0.0   0.5
V6     V     1.0   0.5   0.5
V7     V     0.5   0.0   0.5
V8     V     0.5   0.5   0.5
Ti9     Ti     0.0599   0.4401   0.6798
Ti10     Ti     0.0599   0.9401   0.6798
Ti11     Ti     0.5599   0.4401   0.6798
Ti12     Ti     0.5599   0.9401   0.6798
Ti13     Ti     0.4401   0.3802   0.3202
Ti14     Ti     0.4401   0.8802   0.3202
Ti15     Ti     0.9401   0.3802   0.3202
Ti16     Ti     0.9401   0.8802   0.3202
Ti17     Ti     0.1198   0.0599   0.3202
Ti18     Ti     0.1198   0.5599   0.3202
Ti19     Ti     0.6198   0.0599   0.3202
Ti20     Ti     0.6198   0.5599   0.3202
Ti21     Ti     0.4401   0.0599   0.3202
Ti22     Ti     0.4401   0.5599   0.3202
Ti23     Ti     0.9401   0.0599   0.3202
Ti24     Ti     0.9401   0.5599   0.3202
Ti25     Ti     0.0599   0.1198   0.6798
Ti26     Ti     0.0599   0.6198   0.6798
Ti27     Ti     0.5599   0.1198   0.6798
Ti28     Ti     0.5599   0.6198   0.6798
Ti29     Ti     0.3802   0.4401   0.6798
Ti30     Ti     0.3802   0.9401   0.6798
Ti31     Ti     0.8802   0.4401   0.6798
Ti32     Ti     0.8802   0.9401   0.6798
V33     V     0.0   0.0   0.0
V34     V     1.0   0.5   0.0
V35     V     0.5   0.0   0.0
V36     V     0.5   0.5   0.0
Ti37     Ti     0.0599   0.4401   0.8202
Ti38     Ti     0.0599   0.9401   0.8202
Ti39     Ti     0.5599   0.4401   0.8202
Ti40     Ti     0.5599   0.9401   0.8202
Ti41     Ti     0.0599   0.1198   0.8202
Ti42     Ti     0.0599   0.6198   0.8202
Ti43     Ti     0.5599   0.1198   0.8202
Ti44     Ti     0.5599   0.6198   0.8202
Ti45     Ti     0.3802   0.4401   0.8202
Ti46     Ti     0.3802   0.9401   0.8202
Ti47     Ti     0.8802   0.4401   0.8202
Ti48     Ti     0.8802   0.9401   0.8202
Ti49     Ti     0.1198   0.0599   0.1798
Ti50     Ti     0.1198   0.5599   0.1798
Ti51     Ti     0.6198   0.0599   0.1798
Ti52     Ti     0.6198   0.5599   0.1798
Ti53     Ti     0.4401   0.0599   0.1798
Ti54     Ti     0.4401   0.5599   0.1798
Ti55     Ti     0.9401   0.0599   0.1798
Ti56     Ti     0.9401   0.5599   0.1798
Ti57     Ti     0.4401   0.3802   0.1798
Ti58     Ti     0.4401   0.8802   0.1798
Ti59     Ti     0.9401   0.3802   0.1798
Ti60     Ti     0.9401   0.8802   0.1798
Er61     Er     0.3333   0.1667   0.75
Er62     Er     0.3333   0.6667   0.75
Er63     Er     0.8333   0.1667   0.75
Er64     Er     0.8333   0.6667   0.75
loop_
_geom_bond_atom_site_label_1
_geom_bond_atom_site_label_2
_geom_bond_distance
_geom_bond_site_symmetry_2
_ccdc_geom_bond_type
Er1     Ti17    10.0   .     S
Er1     Ti23    10.0   1_455     S
Er1     Ti55    10.0   1_455     S
Er1     Ti49    10.0   .     S
Er1     Ti57    10.0   .     S
Er1     Ti54    10.0   .     S
Er1     Ti22    10.0   .     S
Er1     Ti13    10.0   .     S
Er1     Ti50    10.0   .     S
Er1     Ti59    10.0   1_455     S
Er1     Ti15    10.0   1_455     S
Er1     Ti18    10.0   .     S
Er2     Ti18    10.0   .     S
Er2     Ti24    10.0   1_455     S
Er2     Ti56    10.0   1_455     S
Er2     Ti50    10.0   .     S
Er2     Ti58    10.0   .     S
Er2     Ti53    10.0   1_565     S
Er2     Ti21    10.0   1_565     S
Er2     Ti14    10.0   .     S
Er2     Ti49    10.0   1_565     S
Er2     Ti60    10.0   1_455     S
Er2     Ti16    10.0   1_455     S
Er2     Ti17    10.0   1_565     S
Er3     Ti19    10.0   .     S
Er3     Ti21    10.0   .     S
Er3     Ti53    10.0   .     S
Er3     Ti51    10.0   .     S
Er3     Ti59    10.0   .     S
Er3     Ti56    10.0   .     S
Er3     Ti24    10.0   .     S
Er3     Ti15    10.0   .     S
Er3     Ti52    10.0   .     S
Er3     Ti57    10.0   .     S
Er3     Ti13    10.0   .     S
Er3     Ti20    10.0   .     S
Er4     Ti20    10.0   .     S
Er4     Ti22    10.0   .     S
Er4     Ti54    10.0   .     S
Er4     Ti52    10.0   .     S
Er4     Ti60    10.0   .     S
Er4     Ti55    10.0   1_565     S
Er4     Ti23    10.0   1_565     S
Er4     Ti16    10.0   .     S
Er4     Ti51    10.0   1_565     S
Er4     Ti58    10.0   .     S
Er4     Ti14    10.0   .     S
Er4     Ti19    10.0   1_565     S
V5     Ti23    10.0   1_455     S
V5     Ti16    10.0   1_445     S
V5     Ti17    10.0   .     S
V5     Ti10    10.0   1_545     S
V5     Ti32    10.0   1_445     S
V5     Ti25    10.0   .     S
V6     Ti24    10.0   .     S
V6     Ti15    10.0   .     S
V6     Ti18    10.0   1_655     S
V6     Ti9    10.0   1_655     S
V6     Ti31    10.0   .     S
V6     Ti26    10.0   1_655     S
V7     Ti21    10.0   .     S
V7     Ti14    10.0   1_545     S
V7     Ti19    10.0   .     S
V7     Ti12    10.0   1_545     S
V7     Ti30    10.0   1_545     S
V7     Ti27    10.0   .     S
V8     Ti22    10.0   .     S
V8     Ti13    10.0   .     S
V8     Ti20    10.0   .     S
V8     Ti11    10.0   .     S
V8     Ti29    10.0   .     S
V8     Ti28    10.0   .     S
Ti9     V6    10.0   1_455     S
Ti9     Er63    10.0   1_455     S
Ti9     Er62    10.0   .     S
Ti10     V5    10.0   1_565     S
Ti10     Er64    10.0   1_455     S
Ti10     Er61    10.0   1_565     S
Ti11     Er61    10.0   .     S
Ti11     Er64    10.0   .     S
Ti12     V7    10.0   1_565     S
Ti12     Er62    10.0   .     S
Ti12     Er63    10.0   1_565     S
Ti14     V7    10.0   1_565     S
Ti15     Er1    10.0   1_655     S
Ti16     Er2    10.0   1_655     S
Ti16     V5    10.0   1_665     S
Ti17     Er2    10.0   1_545     S
Ti18     V6    10.0   1_455     S
Ti19     Er4    10.0   1_545     S
Ti21     Er2    10.0   1_545     S
Ti23     Er1    10.0   1_655     S
Ti23     Er4    10.0   1_545     S
Ti23     V5    10.0   1_655     S
Ti24     Er2    10.0   1_655     S
Ti25     Er63    10.0   1_455     S
Ti25     Er61    10.0   .     S
Ti26     V6    10.0   1_455     S
Ti26     Er64    10.0   1_455     S
Ti26     Er62    10.0   .     S
Ti27     Er61    10.0   .     S
Ti27     Er63    10.0   .     S
Ti28     Er62    10.0   .     S
Ti28     Er64    10.0   .     S
Ti29     Er62    10.0   .     S
Ti29     Er61    10.0   .     S
Ti30     V7    10.0   1_565     S
Ti30     Er61    10.0   1_565     S
Ti30     Er62    10.0   .     S
Ti31     Er64    10.0   .     S
Ti31     Er63    10.0   .     S
Ti32     V5    10.0   1_665     S
Ti32     Er63    10.0   1_565     S
Ti32     Er64    10.0   .     S
V33     Ti55    10.0   1_455     S
V33     Ti60    10.0   1_445     S
V33     Ti49    10.0   .     S
V33     Ti38    10.0   1_544     S
V33     Ti48    10.0   1_444     S
V33     Ti41    10.0   1_554     S
V34     Ti56    10.0   .     S
V34     Ti59    10.0   .     S
V34     Ti50    10.0   1_655     S
V34     Ti37    10.0   1_654     S
V34     Ti47    10.0   1_554     S
V34     Ti42    10.0   1_654     S
V35     Ti53    10.0   .     S
V35     Ti58    10.0   1_545     S
V35     Ti51    10.0   .     S
V35     Ti40    10.0   1_544     S
V35     Ti46    10.0   1_544     S
V35     Ti43    10.0   1_554     S
V36     Ti54    10.0   .     S
V36     Ti57    10.0   .     S
V36     Ti52    10.0   .     S
V36     Ti39    10.0   1_554     S
V36     Ti45    10.0   1_554     S
V36     Ti44    10.0   1_554     S
Ti37     V34    10.0   1_456     S
Ti37     Er63    10.0   1_455     S
Ti37     Er62    10.0   .     S
Ti38     V33    10.0   1_566     S
Ti38     Er64    10.0   1_455     S
Ti38     Er61    10.0   1_565     S
Ti39     V36    10.0   1_556     S
Ti39     Er61    10.0   .     S
Ti39     Er64    10.0   .     S
Ti40     V35    10.0   1_566     S
Ti40     Er62    10.0   .     S
Ti40     Er63    10.0   1_565     S
Ti41     V33    10.0   1_556     S
Ti41     Er63    10.0   1_455     S
Ti41     Er61    10.0   .     S
Ti42     V34    10.0   1_456     S
Ti42     Er64    10.0   1_455     S
Ti42     Er62    10.0   .     S
Ti43     V35    10.0   1_556     S
Ti43     Er61    10.0   .     S
Ti43     Er63    10.0   .     S
Ti44     V36    10.0   1_556     S
Ti44     Er62    10.0   .     S
Ti44     Er64    10.0   .     S
Ti45     V36    10.0   1_556     S
Ti45     Er62    10.0   .     S
Ti45     Er61    10.0   .     S
Ti46     V35    10.0   1_566     S
Ti46     Er61    10.0   1_565     S
Ti46     Er62    10.0   .     S
Ti47     V34    10.0   1_556     S
Ti47     Er64    10.0   .     S
Ti47     Er63    10.0   .     S
Ti48     V33    10.0   1_666     S
Ti48     Er63    10.0   1_565     S
Ti48     Er64    10.0   .     S
Ti49     Er2    10.0   1_545     S
Ti50     V34    10.0   1_455     S
Ti51     Er4    10.0   1_545     S
Ti53     Er2    10.0   1_545     S
Ti55     Er1    10.0   1_655     S
Ti55     Er4    10.0   1_545     S
Ti55     V33    10.0   1_655     S
Ti56     Er2    10.0   1_655     S
Ti58     V35    10.0   1_565     S
Ti59     Er1    10.0   1_655     S
Ti60     Er2    10.0   1_655     S
Ti60     V33    10.0   1_665     S
Er61     Ti46    10.0   1_545     S
Er61     Ti30    10.0   1_545     S
Er61     Ti10    10.0   1_545     S
Er61     Ti38    10.0   1_545     S
Er63     Ti41    10.0   1_655     S
Er63     Ti48    10.0   1_545     S
Er63     Ti32    10.0   1_545     S
Er63     Ti25    10.0   1_655     S
Er63     Ti37    10.0   1_655     S
Er63     Ti9    10.0   1_655     S
Er63     Ti12    10.0   1_545     S
Er63     Ti40    10.0   1_545     S
Er64     Ti42    10.0   1_655     S
Er64     Ti26    10.0   1_655     S
Er64     Ti38    10.0   1_655     S
Er64     Ti10    10.0   1_655     S
