data_ury
_audit_creation_date              2019-12-31
_audit_creation_method            'Pymatgen'
_symmetry_space_group_name_H-M    'P1'
_symmetry_Int_Tables_number       1
loop_
_symmetry_equiv_pos_as_xyz
  x,y,z
_cell_length_a                    28.8442
_cell_length_b                    28.8442
_cell_length_c                    29.8622
_cell_angle_alpha                 90.0
_cell_angle_beta                 90.0
_cell_angle_gamma                 120.0
loop_
_atom_site_label
_atom_site_type_symbol
_atom_site_fract_x
_atom_site_fract_y
_atom_site_fract_z
V1     V     0.1332   0.8668   0.0
V2     V     0.1332   0.8668   0.5
Er3     Er     0.3333   0.6667   0.0
Er4     Er     0.3333   0.6667   0.5
V5     V     0.1332   0.2663   0.0
V6     V     0.1332   0.2663   0.5
V7     V     0.7336   0.8668   0.0
V8     V     0.7336   0.8668   0.5
V9     V     0.8668   0.1332   0.0
V10     V     0.8668   0.1332   0.5
Er11     Er     0.6667   0.3333   0.0
Er12     Er     0.6667   0.3333   0.5
V13     V     0.8668   0.7337   0.0
V14     V     0.8668   0.7337   0.5
V15     V     0.2663   0.1332   0.0
V16     V     0.2663   0.1332   0.5
Ti17     Ti     0.0   0.0   0.25
Ti18     Ti     0.0   0.0   0.75
loop_
_geom_bond_atom_site_label_1
_geom_bond_atom_site_label_2
_geom_bond_distance
_geom_bond_site_symmetry_2
_ccdc_geom_bond_type
V1     Er3    10.0   .     S
V1     Ti18    10.0   1_564     S
V1     Ti17    10.0   1_565     S
V2     Er4    10.0   .     S
V2     Ti17    10.0   1_565     S
V2     Ti18    10.0   1_565     S
Er3     V7    10.0   .     S
Er3     V5    10.0   .     S
Er4     V8    10.0   .     S
Er4     V6    10.0   .     S
V5     Ti18    10.0   1_554     S
V5     Ti17    10.0   .     S
V6     Ti17    10.0   .     S
V6     Ti18    10.0   .     S
V7     Ti18    10.0   1_664     S
V7     Ti17    10.0   1_665     S
V8     Ti17    10.0   1_665     S
V8     Ti18    10.0   1_665     S
V9     Ti18    10.0   1_654     S
V9     Ti17    10.0   1_655     S
V9     Er11    10.0   .     S
V10     Ti17    10.0   1_655     S
V10     Ti18    10.0   1_655     S
V10     Er12    10.0   .     S
Er11     V13    10.0   .     S
Er11     V15    10.0   .     S
Er12     V14    10.0   .     S
Er12     V16    10.0   .     S
V13     Ti18    10.0   1_664     S
V13     Ti17    10.0   1_665     S
V14     Ti17    10.0   1_665     S
V14     Ti18    10.0   1_665     S
V15     Ti18    10.0   1_554     S
V15     Ti17    10.0   .     S
V16     Ti17    10.0   .     S
V16     Ti18    10.0   .     S
Ti17     V8    10.0   1_445     S
Ti17     V14    10.0   1_445     S
Ti17     V2    10.0   1_545     S
Ti17     V10    10.0   1_455     S
Ti17     V7    10.0   1_445     S
Ti17     V13    10.0   1_445     S
Ti17     V1    10.0   1_545     S
Ti17     V9    10.0   1_455     S
Ti18     V15    10.0   1_556     S
Ti18     V5    10.0   1_556     S
Ti18     V7    10.0   1_446     S
Ti18     V13    10.0   1_446     S
Ti18     V1    10.0   1_546     S
Ti18     V9    10.0   1_456     S
Ti18     V8    10.0   1_445     S
Ti18     V14    10.0   1_445     S
Ti18     V2    10.0   1_545     S
Ti18     V10    10.0   1_455     S
