data_utk
_audit_creation_date              2019-12-31
_audit_creation_method            'Pymatgen'
_symmetry_space_group_name_H-M    'P1'
_symmetry_Int_Tables_number       1
loop_
_symmetry_equiv_pos_as_xyz
  x,y,z
_cell_length_a                    28.1885
_cell_length_b                    28.1885
_cell_length_c                    35.1024
_cell_angle_alpha                 90.0
_cell_angle_beta                 90.0
_cell_angle_gamma                 90.0
loop_
_atom_site_label
_atom_site_type_symbol
_atom_site_fract_x
_atom_site_fract_y
_atom_site_fract_z
V1     V     0.8825   0.3241   0.3933
V2     V     0.8825   0.3241   0.8933
V3     V     0.8825   0.6759   0.3567
V4     V     0.8825   0.6759   0.8567
V5     V     0.1175   0.3241   0.1067
V6     V     0.1175   0.3241   0.6067
V7     V     0.1175   0.6759   0.1433
V8     V     0.1175   0.6759   0.6433
V9     V     0.3241   0.1175   0.2683
V10     V     0.3241   0.1175   0.7683
V11     V     0.6759   0.1175   0.2317
V12     V     0.6759   0.1175   0.7317
V13     V     0.3241   0.8825   0.4817
V14     V     0.3241   0.8825   0.9817
V15     V     0.6759   0.8825   0.0183
V16     V     0.6759   0.8825   0.5183
loop_
_geom_bond_atom_site_label_1
_geom_bond_atom_site_label_2
_geom_bond_distance
_geom_bond_site_symmetry_2
_ccdc_geom_bond_type
V1     V3    10.0   .     S
V1     V6    10.0   1_655     S
V1     V11    10.0   .     S
V2     V4    10.0   .     S
V2     V5    10.0   1_656     S
V2     V12    10.0   .     S
V3     V7    10.0   1_655     S
V3     V16    10.0   .     S
V4     V8    10.0   1_655     S
V4     V15    10.0   1_556     S
V5     V7    10.0   .     S
V5     V2    10.0   1_454     S
V5     V9    10.0   .     S
V6     V8    10.0   .     S
V6     V1    10.0   1_455     S
V6     V10    10.0   .     S
V7     V3    10.0   1_455     S
V7     V14    10.0   1_554     S
V8     V4    10.0   1_455     S
V8     V13    10.0   .     S
V9     V11    10.0   .     S
V9     V13    10.0   1_545     S
V10     V12    10.0   .     S
V10     V14    10.0   1_545     S
V11     V15    10.0   1_545     S
V12     V16    10.0   1_545     S
V13     V16    10.0   .     S
V13     V9    10.0   1_565     S
V14     V7    10.0   1_556     S
V14     V15    10.0   1_556     S
V14     V10    10.0   1_565     S
V15     V14    10.0   1_554     S
V15     V11    10.0   1_565     S
V15     V4    10.0   1_554     S
V16     V12    10.0   1_565     S
