data_utn
_audit_creation_date              2019-12-31
_audit_creation_method            'Pymatgen'
_symmetry_space_group_name_H-M    'P1'
_symmetry_Int_Tables_number       1
loop_
_symmetry_equiv_pos_as_xyz
  x,y,z
_cell_length_a                    50.8128
_cell_length_b                    50.8128
_cell_length_c                    37.9456
_cell_angle_alpha                 90.0
_cell_angle_beta                 90.0
_cell_angle_gamma                 90.0
loop_
_atom_site_label
_atom_site_type_symbol
_atom_site_fract_x
_atom_site_fract_y
_atom_site_fract_z
V1     V     0.7945   0.8376   0.3675
V2     V     0.7945   0.8376   0.8675
V3     V     0.7055   0.6624   0.3825
V4     V     0.7055   0.6624   0.8825
V5     V     0.7055   0.8376   0.1325
V6     V     0.7055   0.8376   0.6325
V7     V     0.7945   0.6624   0.1175
V8     V     0.7945   0.6624   0.6175
V9     V     0.4124   0.4555   0.2575
V10     V     0.4124   0.4555   0.7575
V11     V     0.5876   0.5445   0.2425
V12     V     0.5876   0.5445   0.7425
V13     V     0.5876   0.4555   0.0075
V14     V     0.5876   0.4555   0.5075
V15     V     0.4124   0.5445   0.4925
V16     V     0.4124   0.5445   0.9925
V17     V     0.7945   0.3376   0.1325
V18     V     0.7945   0.3376   0.6325
V19     V     0.7055   0.1624   0.1175
V20     V     0.7055   0.1624   0.6175
V21     V     0.7945   0.1624   0.3825
V22     V     0.7945   0.1624   0.8825
V23     V     0.7055   0.3376   0.3675
V24     V     0.7055   0.3376   0.8675
V25     V     0.4124   0.0445   0.0075
V26     V     0.4124   0.0445   0.5075
V27     V     0.5876   0.9555   0.4925
V28     V     0.5876   0.9555   0.9925
V29     V     0.5876   0.0445   0.2575
V30     V     0.5876   0.0445   0.7575
V31     V     0.4124   0.9555   0.2425
V32     V     0.4124   0.9555   0.7425
V33     V     0.2055   0.8376   0.1175
V34     V     0.2055   0.8376   0.6175
V35     V     0.2945   0.6624   0.1325
V36     V     0.2945   0.6624   0.6325
V37     V     0.2945   0.8376   0.3825
V38     V     0.2945   0.8376   0.8825
V39     V     0.2055   0.6624   0.3675
V40     V     0.2055   0.6624   0.8675
V41     V     0.0876   0.0445   0.4925
V42     V     0.0876   0.0445   0.9925
V43     V     0.9124   0.9555   0.0075
V44     V     0.9124   0.9555   0.5075
V45     V     0.9124   0.0445   0.2425
V46     V     0.9124   0.0445   0.7425
V47     V     0.0876   0.9555   0.2575
V48     V     0.0876   0.9555   0.7575
V49     V     0.2945   0.3376   0.1175
V50     V     0.2945   0.3376   0.6175
V51     V     0.2055   0.1624   0.1325
V52     V     0.2055   0.1624   0.6325
V53     V     0.2945   0.1624   0.3675
V54     V     0.2945   0.1624   0.8675
V55     V     0.2055   0.3376   0.3825
V56     V     0.2055   0.3376   0.8825
V57     V     0.0876   0.5445   0.0075
V58     V     0.0876   0.5445   0.5075
V59     V     0.9124   0.4555   0.4925
V60     V     0.9124   0.4555   0.9925
V61     V     0.0876   0.4555   0.2425
V62     V     0.0876   0.4555   0.7425
V63     V     0.9124   0.5445   0.2575
V64     V     0.9124   0.5445   0.7575
loop_
_geom_bond_atom_site_label_1
_geom_bond_atom_site_label_2
_geom_bond_distance
_geom_bond_site_symmetry_2
_ccdc_geom_bond_type
V1     V3    10.0   .     S
V1     V5    10.0   .     S
V1     V44    10.0   .     S
V2     V4    10.0   .     S
V2     V6    10.0   .     S
V2     V43    10.0   1_556     S
V3     V8    10.0   .     S
V3     V11    10.0   .     S
V4     V7    10.0   1_556     S
V4     V12    10.0   .     S
V5     V7    10.0   .     S
V5     V28    10.0   1_554     S
V6     V8    10.0   .     S
V6     V27    10.0   .     S
V7     V4    10.0   1_554     S
V7     V63    10.0   .     S
V8     V64    10.0   .     S
V9     V11    10.0   .     S
V9     V15    10.0   .     S
V9     V49    10.0   .     S
V10     V12    10.0   .     S
V10     V16    10.0   .     S
V10     V50    10.0   .     S
V11     V13    10.0   .     S
V12     V14    10.0   .     S
V13     V16    10.0   1_554     S
V13     V24    10.0   1_554     S
V14     V15    10.0   .     S
V14     V23    10.0   .     S
V15     V36    10.0   .     S
V16     V13    10.0   1_556     S
V16     V35    10.0   1_556     S
V17     V19    10.0   .     S
V17     V23    10.0   .     S
V17     V60    10.0   1_554     S
V18     V20    10.0   .     S
V18     V24    10.0   .     S
V18     V59    10.0   .     S
V19     V22    10.0   1_554     S
V19     V29    10.0   .     S
V20     V21    10.0   .     S
V20     V30    10.0   .     S
V21     V23    10.0   .     S
V21     V45    10.0   .     S
V22     V24    10.0   .     S
V22     V19    10.0   1_556     S
V22     V46    10.0   .     S
V24     V13    10.0   1_556     S
V25     V28    10.0   1_544     S
V25     V31    10.0   1_545     S
V25     V54    10.0   1_554     S
V26     V27    10.0   1_545     S
V26     V32    10.0   1_545     S
V26     V53    10.0   .     S
V27     V26    10.0   1_565     S
V27     V29    10.0   1_565     S
V28     V5    10.0   1_556     S
V28     V25    10.0   1_566     S
V28     V30    10.0   1_565     S
V29     V31    10.0   1_545     S
V29     V27    10.0   1_545     S
V30     V32    10.0   1_545     S
V30     V28    10.0   1_545     S
V31     V25    10.0   1_565     S
V31     V29    10.0   1_565     S
V31     V37    10.0   .     S
V32     V26    10.0   1_565     S
V32     V30    10.0   1_565     S
V32     V38    10.0   .     S
V33     V35    10.0   .     S
V33     V38    10.0   1_554     S
V33     V47    10.0   .     S
V34     V36    10.0   .     S
V34     V37    10.0   .     S
V34     V48    10.0   .     S
V35     V16    10.0   1_554     S
V35     V39    10.0   .     S
V36     V40    10.0   .     S
V37     V39    10.0   .     S
V38     V40    10.0   .     S
V38     V33    10.0   1_556     S
V39     V58    10.0   .     S
V40     V57    10.0   1_556     S
V41     V44    10.0   1_445     S
V41     V47    10.0   1_545     S
V41     V52    10.0   .     S
V42     V43    10.0   1_446     S
V42     V48    10.0   1_545     S
V42     V51    10.0   1_556     S
V43     V2    10.0   1_554     S
V43     V42    10.0   1_664     S
V43     V45    10.0   1_565     S
V44     V41    10.0   1_665     S
V44     V46    10.0   1_565     S
V45     V47    10.0   1_645     S
V45     V43    10.0   1_545     S
V46     V48    10.0   1_645     S
V46     V44    10.0   1_545     S
V47     V45    10.0   1_465     S
V47     V41    10.0   1_565     S
V48     V46    10.0   1_465     S
V48     V42    10.0   1_565     S
V49     V51    10.0   .     S
V49     V56    10.0   1_554     S
V50     V52    10.0   .     S
V50     V55    10.0   .     S
V51     V53    10.0   .     S
V51     V42    10.0   1_554     S
V52     V54    10.0   .     S
V53     V55    10.0   .     S
V54     V56    10.0   .     S
V54     V25    10.0   1_556     S
V55     V61    10.0   .     S
V56     V49    10.0   1_556     S
V56     V62    10.0   .     S
V57     V60    10.0   1_454     S
V57     V61    10.0   .     S
V57     V40    10.0   1_554     S
V58     V59    10.0   1_455     S
V58     V62    10.0   .     S
V59     V58    10.0   1_655     S
V59     V63    10.0   .     S
V60     V57    10.0   1_656     S
V60     V64    10.0   .     S
V60     V17    10.0   1_556     S
V61     V63    10.0   1_455     S
V62     V64    10.0   1_455     S
V63     V61    10.0   1_655     S
V64     V62    10.0   1_655     S
