data_vba
_audit_creation_date              2019-12-31
_audit_creation_method            'Pymatgen'
_symmetry_space_group_name_H-M    'P1'
_symmetry_Int_Tables_number       1
loop_
_symmetry_equiv_pos_as_xyz
  x,y,z
_cell_length_a                    34.0956
_cell_length_b                    60.8461
_cell_length_c                    35.692
_cell_angle_alpha                 90.0
_cell_angle_beta                 90.0
_cell_angle_gamma                 90.0
loop_
_atom_site_label
_atom_site_type_symbol
_atom_site_fract_x
_atom_site_fract_y
_atom_site_fract_z
V1     V     0.1053   0.943   0.491
V2     V     0.6053   0.943   0.491
V3     V     0.2697   0.807   0.491
V4     V     0.7697   0.807   0.491
V5     V     0.2697   0.943   0.259
V6     V     0.7697   0.943   0.259
V7     V     0.1053   0.807   0.259
V8     V     0.6053   0.807   0.259
V9     V     0.2697   0.4431   0.759
V10     V     0.7697   0.4431   0.759
V11     V     0.1053   0.307   0.759
V12     V     0.6053   0.307   0.759
V13     V     0.1053   0.4431   0.991
V14     V     0.6053   0.4431   0.991
V15     V     0.2697   0.307   0.991
V16     V     0.7697   0.307   0.991
V17     V     0.2303   0.1931   0.509
V18     V     0.7303   0.1931   0.509
V19     V     0.3947   0.057   0.509
V20     V     0.8947   0.057   0.509
V21     V     0.2303   0.057   0.741
V22     V     0.7303   0.057   0.741
V23     V     0.3947   0.1931   0.741
V24     V     0.8947   0.1931   0.741
V25     V     0.3947   0.557   0.009
V26     V     0.8947   0.557   0.009
V27     V     0.2303   0.6931   0.009
V28     V     0.7303   0.6931   0.009
V29     V     0.2303   0.557   0.241
V30     V     0.7303   0.557   0.241
V31     V     0.3947   0.6931   0.241
V32     V     0.8947   0.6931   0.241
V33     V     0.0197   0.943   0.759
V34     V     0.5197   0.943   0.759
V35     V     0.3553   0.807   0.759
V36     V     0.8553   0.807   0.759
V37     V     0.3553   0.943   0.991
V38     V     0.8553   0.943   0.991
V39     V     0.0197   0.807   0.991
V40     V     0.5197   0.807   0.991
V41     V     0.4803   0.557   0.741
V42     V     0.9803   0.557   0.741
V43     V     0.1447   0.6931   0.741
V44     V     0.6447   0.6931   0.741
V45     V     0.1447   0.557   0.509
V46     V     0.6447   0.557   0.509
V47     V     0.4803   0.6931   0.509
V48     V     0.9803   0.6931   0.509
V49     V     0.3553   0.4431   0.491
V50     V     0.8553   0.4431   0.491
V51     V     0.0197   0.307   0.491
V52     V     0.5197   0.307   0.491
V53     V     0.0197   0.4431   0.259
V54     V     0.5197   0.4431   0.259
V55     V     0.3553   0.307   0.259
V56     V     0.8553   0.307   0.259
V57     V     0.1447   0.057   0.009
V58     V     0.6447   0.057   0.009
V59     V     0.4803   0.1931   0.009
V60     V     0.9803   0.1931   0.009
V61     V     0.4803   0.057   0.241
V62     V     0.9803   0.057   0.241
V63     V     0.1447   0.1931   0.241
V64     V     0.6447   0.1931   0.241
loop_
_geom_bond_atom_site_label_1
_geom_bond_atom_site_label_2
_geom_bond_distance
_geom_bond_site_symmetry_2
_ccdc_geom_bond_type
V1     V3    10.0   .     S
V1     V5    10.0   .     S
V1     V20    10.0   1_465     S
V1     V33    10.0   .     S
V2     V4    10.0   .     S
V2     V6    10.0   .     S
V2     V19    10.0   1_565     S
V2     V34    10.0   .     S
V3     V7    10.0   .     S
V3     V47    10.0   .     S
V3     V35    10.0   .     S
V4     V8    10.0   .     S
V4     V48    10.0   .     S
V4     V36    10.0   .     S
V5     V7    10.0   .     S
V5     V61    10.0   1_565     S
V5     V37    10.0   1_554     S
V6     V8    10.0   .     S
V6     V62    10.0   1_565     S
V6     V38    10.0   1_554     S
V7     V32    10.0   1_455     S
V7     V39    10.0   1_554     S
V8     V31    10.0   .     S
V8     V40    10.0   1_554     S
V9     V11    10.0   .     S
V9     V13    10.0   .     S
V9     V41    10.0   .     S
V9     V49    10.0   .     S
V10     V12    10.0   .     S
V10     V14    10.0   .     S
V10     V42    10.0   .     S
V10     V50    10.0   .     S
V11     V15    10.0   .     S
V11     V24    10.0   1_455     S
V11     V51    10.0   .     S
V12     V16    10.0   .     S
V12     V23    10.0   .     S
V12     V52    10.0   .     S
V13     V15    10.0   .     S
V13     V26    10.0   1_456     S
V13     V53    10.0   1_556     S
V14     V16    10.0   .     S
V14     V25    10.0   1_556     S
V14     V54    10.0   1_556     S
V15     V59    10.0   1_556     S
V15     V55    10.0   1_556     S
V16     V60    10.0   1_556     S
V16     V56    10.0   1_556     S
V17     V19    10.0   .     S
V17     V23    10.0   .     S
V17     V51    10.0   .     S
V17     V63    10.0   .     S
V18     V20    10.0   .     S
V18     V24    10.0   .     S
V18     V52    10.0   .     S
V18     V64    10.0   .     S
V19     V21    10.0   .     S
V19     V2    10.0   1_545     S
V19     V61    10.0   .     S
V20     V22    10.0   .     S
V20     V1    10.0   1_645     S
V20     V62    10.0   .     S
V21     V23    10.0   .     S
V21     V33    10.0   1_545     S
V21     V57    10.0   1_556     S
V22     V24    10.0   .     S
V22     V34    10.0   1_545     S
V22     V58    10.0   1_556     S
V23     V59    10.0   1_556     S
V24     V11    10.0   1_655     S
V24     V60    10.0   1_556     S
V25     V27    10.0   .     S
V25     V29    10.0   .     S
V25     V14    10.0   1_554     S
V25     V41    10.0   1_554     S
V26     V28    10.0   .     S
V26     V30    10.0   .     S
V26     V13    10.0   1_654     S
V26     V42    10.0   1_554     S
V27     V31    10.0   .     S
V27     V39    10.0   1_554     S
V27     V43    10.0   1_554     S
V28     V32    10.0   .     S
V28     V40    10.0   1_554     S
V28     V44    10.0   1_554     S
V29     V31    10.0   .     S
V29     V53    10.0   .     S
V29     V45    10.0   .     S
V30     V32    10.0   .     S
V30     V54    10.0   .     S
V30     V46    10.0   .     S
V31     V47    10.0   .     S
V32     V7    10.0   1_655     S
V32     V48    10.0   .     S
V33     V36    10.0   1_455     S
V33     V38    10.0   1_455     S
V33     V21    10.0   1_565     S
V34     V35    10.0   .     S
V34     V37    10.0   .     S
V34     V22    10.0   1_565     S
V35     V40    10.0   .     S
V35     V43    10.0   .     S
V36     V33    10.0   1_655     S
V36     V39    10.0   1_655     S
V36     V44    10.0   .     S
V37     V40    10.0   .     S
V37     V57    10.0   1_566     S
V37     V5    10.0   1_556     S
V38     V33    10.0   1_655     S
V38     V39    10.0   1_655     S
V38     V58    10.0   1_566     S
V38     V6    10.0   1_556     S
V39     V38    10.0   1_455     S
V39     V36    10.0   1_455     S
V39     V27    10.0   1_556     S
V39     V7    10.0   1_556     S
V40     V28    10.0   1_556     S
V40     V8    10.0   1_556     S
V41     V44    10.0   .     S
V41     V46    10.0   .     S
V41     V25    10.0   1_556     S
V42     V43    10.0   1_655     S
V42     V45    10.0   1_655     S
V42     V26    10.0   1_556     S
V43     V42    10.0   1_455     S
V43     V48    10.0   1_455     S
V43     V27    10.0   1_556     S
V44     V47    10.0   .     S
V44     V28    10.0   1_556     S
V45     V48    10.0   1_455     S
V45     V42    10.0   1_455     S
V45     V49    10.0   .     S
V46     V47    10.0   .     S
V46     V50    10.0   .     S
V48     V45    10.0   1_655     S
V48     V43    10.0   1_655     S
V49     V52    10.0   .     S
V49     V54    10.0   .     S
V50     V51    10.0   1_655     S
V50     V53    10.0   1_655     S
V51     V50    10.0   1_455     S
V51     V56    10.0   1_455     S
V52     V55    10.0   .     S
V53     V56    10.0   1_455     S
V53     V50    10.0   1_455     S
V53     V13    10.0   1_554     S
V54     V55    10.0   .     S
V54     V14    10.0   1_554     S
V55     V63    10.0   .     S
V55     V15    10.0   1_554     S
V56     V53    10.0   1_655     S
V56     V51    10.0   1_655     S
V56     V64    10.0   .     S
V56     V16    10.0   1_554     S
V57     V60    10.0   1_455     S
V57     V62    10.0   1_455     S
V57     V37    10.0   1_544     S
V57     V21    10.0   1_554     S
V58     V59    10.0   .     S
V58     V61    10.0   .     S
V58     V38    10.0   1_544     S
V58     V22    10.0   1_554     S
V59     V64    10.0   .     S
V59     V15    10.0   1_554     S
V59     V23    10.0   1_554     S
V60     V57    10.0   1_655     S
V60     V63    10.0   1_655     S
V60     V16    10.0   1_554     S
V60     V24    10.0   1_554     S
V61     V64    10.0   .     S
V61     V5    10.0   1_545     S
V62     V63    10.0   1_655     S
V62     V57    10.0   1_655     S
V62     V6    10.0   1_545     S
V63     V60    10.0   1_455     S
V63     V62    10.0   1_455     S
