data_vbd
_audit_creation_date              2019-12-31
_audit_creation_method            'Pymatgen'
_symmetry_space_group_name_H-M    'P1'
_symmetry_Int_Tables_number       1
loop_
_symmetry_equiv_pos_as_xyz
  x,y,z
_cell_length_a                    60.5573
_cell_length_b                    32.0666
_cell_length_c                    36.6459
_cell_angle_alpha                 90.0
_cell_angle_beta                 90.0
_cell_angle_gamma                 90.0
loop_
_atom_site_label
_atom_site_type_symbol
_atom_site_fract_x
_atom_site_fract_y
_atom_site_fract_z
V1     V     0.9506   0.0   0.75
V2     V     0.9506   0.5   0.75
V3     V     0.7994   0.375   0.75
V4     V     0.7994   0.875   0.75
V5     V     0.9506   0.125   0.5
V6     V     0.9506   0.625   0.5
V7     V     0.7994   0.25   0.5
V8     V     0.7994   0.75   0.5
V9     V     0.9506   0.25   0.25
V10     V     0.9506   0.75   0.25
V11     V     0.7994   0.125   0.25
V12     V     0.7994   0.625   0.25
V13     V     0.9506   0.375   0.0
V14     V     0.9506   0.875   0.0
V15     V     0.7994   0.0   0.0
V16     V     0.7994   0.5   0.0
V17     V     0.4506   0.25   0.75
V18     V     0.4506   0.75   0.75
V19     V     0.2994   0.125   0.75
V20     V     0.2994   0.625   0.75
V21     V     0.4506   0.125   0.0
V22     V     0.4506   0.625   0.0
V23     V     0.2994   0.25   0.0
V24     V     0.2994   0.75   0.0
V25     V     0.4506   0.375   0.5
V26     V     0.4506   0.875   0.5
V27     V     0.2994   0.0   0.5
V28     V     0.2994   0.5   0.5
V29     V     0.2994   0.375   0.25
V30     V     0.2994   0.875   0.25
V31     V     0.4506   0.0   0.25
V32     V     0.4506   0.5   0.25
V33     V     0.0494   0.25   0.75
V34     V     0.0494   0.75   0.75
V35     V     0.2006   0.375   0.75
V36     V     0.2006   0.875   0.75
V37     V     0.0494   0.375   0.5
V38     V     0.0494   0.875   0.5
V39     V     0.2006   0.25   0.5
V40     V     0.2006   0.75   0.5
V41     V     0.0494   0.0   0.25
V42     V     0.0494   0.5   0.25
V43     V     0.2006   0.125   0.25
V44     V     0.2006   0.625   0.25
V45     V     0.0494   0.125   0.0
V46     V     0.0494   0.625   0.0
V47     V     0.2006   0.0   0.0
V48     V     0.2006   0.5   0.0
V49     V     0.5494   0.0   0.75
V50     V     0.5494   0.5   0.75
V51     V     0.7006   0.125   0.75
V52     V     0.7006   0.625   0.75
V53     V     0.7006   0.25   0.0
V54     V     0.7006   0.75   0.0
V55     V     0.5494   0.375   0.0
V56     V     0.5494   0.875   0.0
V57     V     0.5494   0.25   0.25
V58     V     0.5494   0.75   0.25
V59     V     0.7006   0.375   0.25
V60     V     0.7006   0.875   0.25
V61     V     0.5494   0.125   0.5
V62     V     0.5494   0.625   0.5
V63     V     0.7006   0.0   0.5
V64     V     0.7006   0.5   0.5
loop_
_geom_bond_atom_site_label_1
_geom_bond_atom_site_label_2
_geom_bond_distance
_geom_bond_site_symmetry_2
_ccdc_geom_bond_type
V1     V4    10.0   1_545     S
V1     V5    10.0   .     S
V1     V14    10.0   1_546     S
V1     V33    10.0   1_655     S
V1     V34    10.0   1_645     S
V2     V3    10.0   .     S
V2     V6    10.0   .     S
V2     V13    10.0   1_556     S
V2     V34    10.0   1_655     S
V2     V33    10.0   1_655     S
V3     V7    10.0   .     S
V3     V16    10.0   1_556     S
V3     V52    10.0   .     S
V3     V51    10.0   .     S
V4     V1    10.0   1_565     S
V4     V8    10.0   .     S
V4     V15    10.0   1_566     S
V4     V51    10.0   1_565     S
V4     V52    10.0   .     S
V5     V7    10.0   .     S
V5     V9    10.0   .     S
V5     V38    10.0   1_645     S
V5     V37    10.0   1_655     S
V6     V8    10.0   .     S
V6     V10    10.0   .     S
V6     V37    10.0   1_655     S
V6     V38    10.0   1_655     S
V7     V11    10.0   .     S
V7     V64    10.0   .     S
V7     V63    10.0   .     S
V8     V12    10.0   .     S
V8     V63    10.0   1_565     S
V8     V64    10.0   .     S
V9     V11    10.0   .     S
V9     V13    10.0   .     S
V9     V42    10.0   1_655     S
V9     V41    10.0   1_655     S
V10     V12    10.0   .     S
V10     V14    10.0   .     S
V10     V41    10.0   1_665     S
V10     V42    10.0   1_655     S
V11     V15    10.0   .     S
V11     V60    10.0   1_545     S
V11     V59    10.0   .     S
V12     V16    10.0   .     S
V12     V59    10.0   .     S
V12     V60    10.0   .     S
V13     V16    10.0   .     S
V13     V2    10.0   1_554     S
V13     V45    10.0   1_655     S
V13     V46    10.0   1_655     S
V14     V15    10.0   1_565     S
V14     V1    10.0   1_564     S
V14     V46    10.0   1_655     S
V14     V45    10.0   1_665     S
V15     V14    10.0   1_545     S
V15     V4    10.0   1_544     S
V15     V54    10.0   1_545     S
V15     V53    10.0   .     S
V16     V3    10.0   1_554     S
V16     V53    10.0   .     S
V16     V54    10.0   .     S
V17     V19    10.0   .     S
V17     V21    10.0   1_556     S
V17     V25    10.0   .     S
V17     V50    10.0   .     S
V17     V49    10.0   .     S
V18     V20    10.0   .     S
V18     V22    10.0   1_556     S
V18     V26    10.0   .     S
V18     V49    10.0   1_565     S
V18     V50    10.0   .     S
V19     V23    10.0   1_556     S
V19     V27    10.0   .     S
V19     V36    10.0   1_545     S
V19     V35    10.0   .     S
V20     V24    10.0   1_556     S
V20     V28    10.0   .     S
V20     V35    10.0   .     S
V20     V36    10.0   .     S
V21     V23    10.0   .     S
V21     V17    10.0   1_554     S
V21     V31    10.0   .     S
V21     V56    10.0   1_545     S
V21     V55    10.0   .     S
V22     V24    10.0   .     S
V22     V18    10.0   1_554     S
V22     V32    10.0   .     S
V22     V55    10.0   .     S
V22     V56    10.0   .     S
V23     V19    10.0   1_554     S
V23     V29    10.0   .     S
V23     V48    10.0   .     S
V23     V47    10.0   .     S
V24     V20    10.0   1_554     S
V24     V30    10.0   .     S
V24     V47    10.0   1_565     S
V24     V48    10.0   .     S
V25     V28    10.0   .     S
V25     V32    10.0   .     S
V25     V62    10.0   .     S
V25     V61    10.0   .     S
V26     V27    10.0   1_565     S
V26     V31    10.0   1_565     S
V26     V61    10.0   1_565     S
V26     V62    10.0   .     S
V27     V26    10.0   1_545     S
V27     V30    10.0   1_545     S
V27     V39    10.0   .     S
V27     V40    10.0   1_545     S
V28     V29    10.0   .     S
V28     V40    10.0   .     S
V28     V39    10.0   .     S
V29     V32    10.0   .     S
V29     V43    10.0   .     S
V29     V44    10.0   .     S
V30     V31    10.0   1_565     S
V30     V27    10.0   1_565     S
V30     V44    10.0   .     S
V30     V43    10.0   1_565     S
V31     V30    10.0   1_545     S
V31     V26    10.0   1_545     S
V31     V58    10.0   1_545     S
V31     V57    10.0   .     S
V32     V57    10.0   .     S
V32     V58    10.0   .     S
V33     V35    10.0   .     S
V33     V37    10.0   .     S
V33     V45    10.0   1_556     S
V33     V1    10.0   1_455     S
V33     V2    10.0   1_455     S
V34     V36    10.0   .     S
V34     V38    10.0   .     S
V34     V46    10.0   1_556     S
V34     V2    10.0   1_455     S
V34     V1    10.0   1_465     S
V35     V39    10.0   .     S
V35     V48    10.0   1_556     S
V36     V40    10.0   .     S
V36     V47    10.0   1_566     S
V36     V19    10.0   1_565     S
V37     V39    10.0   .     S
V37     V42    10.0   .     S
V37     V6    10.0   1_455     S
V37     V5    10.0   1_455     S
V38     V40    10.0   .     S
V38     V41    10.0   1_565     S
V38     V5    10.0   1_465     S
V38     V6    10.0   1_455     S
V39     V43    10.0   .     S
V40     V44    10.0   .     S
V40     V27    10.0   1_565     S
V41     V43    10.0   .     S
V41     V45    10.0   .     S
V41     V38    10.0   1_545     S
V41     V10    10.0   1_445     S
V41     V9    10.0   1_455     S
V42     V44    10.0   .     S
V42     V46    10.0   .     S
V42     V9    10.0   1_455     S
V42     V10    10.0   1_455     S
V43     V47    10.0   .     S
V43     V30    10.0   1_545     S
V44     V48    10.0   .     S
V45     V47    10.0   .     S
V45     V33    10.0   1_554     S
V45     V13    10.0   1_455     S
V45     V14    10.0   1_445     S
V46     V48    10.0   .     S
V46     V34    10.0   1_554     S
V46     V14    10.0   1_455     S
V46     V13    10.0   1_455     S
V47     V36    10.0   1_544     S
V47     V24    10.0   1_545     S
V48     V35    10.0   1_554     S
V49     V51    10.0   .     S
V49     V56    10.0   1_546     S
V49     V61    10.0   .     S
V49     V18    10.0   1_545     S
V50     V52    10.0   .     S
V50     V55    10.0   1_556     S
V50     V62    10.0   .     S
V51     V4    10.0   1_545     S
V51     V53    10.0   1_556     S
V51     V63    10.0   .     S
V52     V54    10.0   1_556     S
V52     V64    10.0   .     S
V53     V55    10.0   .     S
V53     V51    10.0   1_554     S
V53     V59    10.0   .     S
V54     V15    10.0   1_565     S
V54     V56    10.0   .     S
V54     V52    10.0   1_554     S
V54     V60    10.0   .     S
V55     V50    10.0   1_554     S
V55     V57    10.0   .     S
V56     V49    10.0   1_564     S
V56     V58    10.0   .     S
V56     V21    10.0   1_565     S
V57     V59    10.0   .     S
V57     V61    10.0   .     S
V58     V31    10.0   1_565     S
V58     V60    10.0   .     S
V58     V62    10.0   .     S
V59     V64    10.0   .     S
V60     V63    10.0   1_565     S
V60     V11    10.0   1_565     S
V61     V26    10.0   1_545     S
V61     V63    10.0   .     S
V62     V64    10.0   .     S
V63     V60    10.0   1_545     S
V63     V8    10.0   1_545     S
