data_vbf
_audit_creation_date              2019-12-31
_audit_creation_method            'Pymatgen'
_symmetry_space_group_name_H-M    'P1'
_symmetry_Int_Tables_number       1
loop_
_symmetry_equiv_pos_as_xyz
  x,y,z
_cell_length_a                    24.4489
_cell_length_b                    46.8575
_cell_length_c                    31.979
_cell_angle_alpha                 90.0
_cell_angle_beta                 90.0
_cell_angle_gamma                 90.0
loop_
_atom_site_label
_atom_site_type_symbol
_atom_site_fract_x
_atom_site_fract_y
_atom_site_fract_z
V1     V     0.5715   0.8021   0.0
V2     V     0.5715   0.8021   0.5
V3     V     0.9285   0.6979   0.0
V4     V     0.9285   0.6979   0.5
V5     V     0.8215   0.4479   0.125
V6     V     0.8215   0.4479   0.625
V7     V     0.1785   0.5521   0.125
V8     V     0.1785   0.5521   0.625
V9     V     0.6785   0.5521   0.375
V10     V     0.6785   0.5521   0.875
V11     V     0.3215   0.4479   0.375
V12     V     0.3215   0.4479   0.875
V13     V     0.5715   0.3021   0.25
V14     V     0.5715   0.3021   0.75
V15     V     0.9285   0.1979   0.25
V16     V     0.9285   0.1979   0.75
V17     V     0.6785   0.0521   0.125
V18     V     0.6785   0.0521   0.625
V19     V     0.3215   0.9479   0.125
V20     V     0.3215   0.9479   0.625
V21     V     0.0715   0.8021   0.25
V22     V     0.0715   0.8021   0.75
V23     V     0.4285   0.6979   0.25
V24     V     0.4285   0.6979   0.75
V25     V     0.0715   0.3021   0.0
V26     V     0.0715   0.3021   0.5
V27     V     0.4285   0.1979   0.0
V28     V     0.4285   0.1979   0.5
V29     V     0.8215   0.9479   0.375
V30     V     0.8215   0.9479   0.875
V31     V     0.1785   0.0521   0.375
V32     V     0.1785   0.0521   0.875
loop_
_geom_bond_atom_site_label_1
_geom_bond_atom_site_label_2
_geom_bond_distance
_geom_bond_site_symmetry_2
_ccdc_geom_bond_type
V1     V3    10.0   .     S
V1     V19    10.0   .     S
V1     V30    10.0   1_554     S
V1     V24    10.0   1_554     S
V1     V23    10.0   .     S
V2     V4    10.0   .     S
V2     V20    10.0   .     S
V2     V29    10.0   .     S
V2     V23    10.0   .     S
V2     V24    10.0   .     S
V3     V10    10.0   1_554     S
V3     V7    10.0   1_655     S
V3     V21    10.0   1_655     S
V3     V22    10.0   1_654     S
V4     V9    10.0   .     S
V4     V8    10.0   1_655     S
V4     V22    10.0   1_655     S
V4     V21    10.0   1_655     S
V5     V7    10.0   1_655     S
V5     V25    10.0   1_655     S
V5     V13    10.0   .     S
V5     V10    10.0   1_554     S
V5     V9    10.0   .     S
V6     V8    10.0   1_655     S
V6     V26    10.0   1_655     S
V6     V14    10.0   .     S
V6     V9    10.0   .     S
V6     V10    10.0   .     S
V7     V5    10.0   1_455     S
V7     V23    10.0   .     S
V7     V3    10.0   1_455     S
V7     V11    10.0   .     S
V7     V12    10.0   1_554     S
V8     V6    10.0   1_455     S
V8     V24    10.0   .     S
V8     V4    10.0   1_455     S
V8     V12    10.0   .     S
V8     V11    10.0   .     S
V9     V11    10.0   .     S
V9     V23    10.0   .     S
V10     V3    10.0   1_556     S
V10     V12    10.0   .     S
V10     V24    10.0   .     S
V10     V5    10.0   1_556     S
V11     V26    10.0   .     S
V11     V13    10.0   .     S
V12     V25    10.0   1_556     S
V12     V14    10.0   .     S
V12     V7    10.0   1_556     S
V13     V15    10.0   .     S
V13     V28    10.0   .     S
V13     V27    10.0   .     S
V14     V16    10.0   .     S
V14     V27    10.0   1_556     S
V14     V28    10.0   .     S
V15     V17    10.0   .     S
V15     V31    10.0   1_655     S
V15     V25    10.0   1_655     S
V15     V26    10.0   1_655     S
V16     V18    10.0   .     S
V16     V32    10.0   1_655     S
V16     V26    10.0   1_655     S
V16     V25    10.0   1_656     S
V17     V19    10.0   1_545     S
V17     V27    10.0   .     S
V17     V30    10.0   1_544     S
V17     V29    10.0   1_545     S
V18     V20    10.0   1_545     S
V18     V28    10.0   .     S
V18     V29    10.0   1_545     S
V18     V30    10.0   1_545     S
V19     V17    10.0   1_565     S
V19     V21    10.0   .     S
V19     V32    10.0   1_564     S
V19     V31    10.0   1_565     S
V20     V18    10.0   1_565     S
V20     V22    10.0   .     S
V20     V31    10.0   1_565     S
V20     V32    10.0   1_565     S
V21     V23    10.0   .     S
V21     V29    10.0   1_455     S
V21     V3    10.0   1_455     S
V21     V4    10.0   1_455     S
V22     V24    10.0   .     S
V22     V30    10.0   1_455     S
V22     V4    10.0   1_455     S
V22     V3    10.0   1_456     S
V24     V1    10.0   1_556     S
V25     V5    10.0   1_455     S
V25     V12    10.0   1_554     S
V25     V27    10.0   .     S
V25     V15    10.0   1_455     S
V25     V16    10.0   1_454     S
V26     V6    10.0   1_455     S
V26     V28    10.0   .     S
V26     V16    10.0   1_455     S
V26     V15    10.0   1_455     S
V27     V32    10.0   1_554     S
V27     V14    10.0   1_554     S
V28     V31    10.0   .     S
V29     V31    10.0   1_665     S
V29     V21    10.0   1_655     S
V29     V18    10.0   1_565     S
V29     V17    10.0   1_565     S
V30     V32    10.0   1_665     S
V30     V22    10.0   1_655     S
V30     V1    10.0   1_556     S
V30     V17    10.0   1_566     S
V30     V18    10.0   1_565     S
V31     V29    10.0   1_445     S
V31     V15    10.0   1_455     S
V31     V20    10.0   1_545     S
V31     V19    10.0   1_545     S
V32     V30    10.0   1_445     S
V32     V27    10.0   1_556     S
V32     V16    10.0   1_455     S
V32     V19    10.0   1_546     S
V32     V20    10.0   1_545     S
