data_vbk
_audit_creation_date              2019-12-31
_audit_creation_method            'Pymatgen'
_symmetry_space_group_name_H-M    'P1'
_symmetry_Int_Tables_number       1
loop_
_symmetry_equiv_pos_as_xyz
  x,y,z
_cell_length_a                    37.849
_cell_length_b                    29.9838
_cell_length_c                    32.858
_cell_angle_alpha                 90.0
_cell_angle_beta                 90.0
_cell_angle_gamma                 90.0
loop_
_atom_site_label
_atom_site_type_symbol
_atom_site_fract_x
_atom_site_fract_y
_atom_site_fract_z
V1     V     0.3679   0.6549   0.0564
V2     V     0.3679   0.6549   0.5564
V3     V     0.6321   0.6549   0.0564
V4     V     0.6321   0.6549   0.5564
V5     V     0.3679   0.3451   0.4436
V6     V     0.3679   0.3451   0.9436
V7     V     0.6321   0.3451   0.4436
V8     V     0.6321   0.3451   0.9436
V9     V     0.3679   0.8451   0.3064
V10     V     0.3679   0.8451   0.8064
V11     V     0.6321   0.8451   0.3064
V12     V     0.6321   0.8451   0.8064
V13     V     0.3679   0.1549   0.1936
V14     V     0.3679   0.1549   0.6936
V15     V     0.6321   0.1549   0.1936
V16     V     0.6321   0.1549   0.6936
V17     V     0.1321   0.8451   0.4436
V18     V     0.1321   0.8451   0.9436
V19     V     0.8679   0.8451   0.4436
V20     V     0.8679   0.8451   0.9436
V21     V     0.1321   0.1549   0.0564
V22     V     0.1321   0.1549   0.5564
V23     V     0.8679   0.1549   0.0564
V24     V     0.8679   0.1549   0.5564
V25     V     0.1321   0.6549   0.1936
V26     V     0.1321   0.6549   0.6936
V27     V     0.8679   0.6549   0.1936
V28     V     0.8679   0.6549   0.6936
V29     V     0.1321   0.3451   0.3064
V30     V     0.1321   0.3451   0.8064
V31     V     0.8679   0.3451   0.3064
V32     V     0.8679   0.3451   0.8064
loop_
_geom_bond_atom_site_label_1
_geom_bond_atom_site_label_2
_geom_bond_distance
_geom_bond_site_symmetry_2
_ccdc_geom_bond_type
V1     V3    10.0   .     S
V1     V6    10.0   1_554     S
V1     V9    10.0   .     S
V1     V10    10.0   1_554     S
V1     V25    10.0   .     S
V2     V4    10.0   .     S
V2     V5    10.0   .     S
V2     V10    10.0   .     S
V2     V9    10.0   .     S
V2     V26    10.0   .     S
V3     V8    10.0   1_554     S
V3     V11    10.0   .     S
V3     V12    10.0   1_554     S
V3     V27    10.0   .     S
V4     V7    10.0   .     S
V4     V12    10.0   .     S
V4     V11    10.0   .     S
V4     V28    10.0   .     S
V5     V7    10.0   .     S
V5     V14    10.0   .     S
V5     V13    10.0   .     S
V5     V29    10.0   .     S
V6     V8    10.0   .     S
V6     V1    10.0   1_556     S
V6     V13    10.0   1_556     S
V6     V14    10.0   .     S
V6     V30    10.0   .     S
V7     V16    10.0   .     S
V7     V15    10.0   .     S
V7     V31    10.0   .     S
V8     V3    10.0   1_556     S
V8     V15    10.0   1_556     S
V8     V16    10.0   .     S
V8     V32    10.0   .     S
V9     V11    10.0   .     S
V9     V13    10.0   1_565     S
V9     V17    10.0   .     S
V10     V12    10.0   .     S
V10     V14    10.0   1_565     S
V10     V1    10.0   1_556     S
V10     V18    10.0   .     S
V11     V15    10.0   1_565     S
V11     V19    10.0   .     S
V12     V16    10.0   1_565     S
V12     V3    10.0   1_556     S
V12     V20    10.0   .     S
V13     V15    10.0   .     S
V13     V9    10.0   1_545     S
V13     V6    10.0   1_554     S
V13     V21    10.0   .     S
V14     V16    10.0   .     S
V14     V10    10.0   1_545     S
V14     V22    10.0   .     S
V15     V11    10.0   1_545     S
V15     V8    10.0   1_554     S
V15     V23    10.0   .     S
V16     V12    10.0   1_545     S
V16     V24    10.0   .     S
V17     V19    10.0   1_455     S
V17     V22    10.0   1_565     S
V17     V26    10.0   .     S
V17     V25    10.0   .     S
V18     V20    10.0   1_455     S
V18     V21    10.0   1_566     S
V18     V25    10.0   1_556     S
V18     V26    10.0   .     S
V19     V17    10.0   1_655     S
V19     V24    10.0   1_565     S
V19     V28    10.0   .     S
V19     V27    10.0   .     S
V20     V18    10.0   1_655     S
V20     V23    10.0   1_566     S
V20     V27    10.0   1_556     S
V20     V28    10.0   .     S
V21     V23    10.0   1_455     S
V21     V18    10.0   1_544     S
V21     V30    10.0   1_554     S
V21     V29    10.0   .     S
V22     V24    10.0   1_455     S
V22     V17    10.0   1_545     S
V22     V29    10.0   .     S
V22     V30    10.0   .     S
V23     V21    10.0   1_655     S
V23     V20    10.0   1_544     S
V23     V32    10.0   1_554     S
V23     V31    10.0   .     S
V24     V22    10.0   1_655     S
V24     V19    10.0   1_545     S
V24     V31    10.0   .     S
V24     V32    10.0   .     S
V25     V27    10.0   1_455     S
V25     V29    10.0   .     S
V25     V18    10.0   1_554     S
V26     V28    10.0   1_455     S
V26     V30    10.0   .     S
V27     V25    10.0   1_655     S
V27     V31    10.0   .     S
V27     V20    10.0   1_554     S
V28     V26    10.0   1_655     S
V28     V32    10.0   .     S
V29     V31    10.0   1_455     S
V30     V32    10.0   1_455     S
V30     V21    10.0   1_556     S
V31     V29    10.0   1_655     S
V32     V30    10.0   1_655     S
V32     V23    10.0   1_556     S
