data_vbm
_audit_creation_date              2019-12-31
_audit_creation_method            'Pymatgen'
_symmetry_space_group_name_H-M    'P1'
_symmetry_Int_Tables_number       1
loop_
_symmetry_equiv_pos_as_xyz
  x,y,z
_cell_length_a                    38.5981
_cell_length_b                    30.0
_cell_length_c                    39.699
_cell_angle_alpha                 90.0
_cell_angle_beta                 90.0
_cell_angle_gamma                 90.0
loop_
_atom_site_label
_atom_site_type_symbol
_atom_site_fract_x
_atom_site_fract_y
_atom_site_fract_z
V1     V     0.6276   0.1955   0.874
V2     V     0.6276   0.5288   0.874
V3     V     0.6276   0.8621   0.874
V4     V     0.6276   0.1379   0.626
V5     V     0.6276   0.4712   0.626
V6     V     0.6276   0.8045   0.626
V7     V     0.3724   0.1379   0.874
V8     V     0.3724   0.4712   0.874
V9     V     0.3724   0.8045   0.874
V10     V     0.3724   0.1955   0.626
V11     V     0.3724   0.5288   0.626
V12     V     0.3724   0.8621   0.626
V13     V     0.8724   0.0288   0.626
V14     V     0.8724   0.3621   0.626
V15     V     0.8724   0.6955   0.626
V16     V     0.8724   0.3045   0.874
V17     V     0.8724   0.6379   0.874
V18     V     0.8724   0.9712   0.874
V19     V     0.1276   0.0288   0.874
V20     V     0.1276   0.3621   0.874
V21     V     0.1276   0.6955   0.874
V22     V     0.1276   0.3045   0.626
V23     V     0.1276   0.6379   0.626
V24     V     0.1276   0.9712   0.626
V25     V     0.3724   0.1379   0.1259
V26     V     0.3724   0.4712   0.1259
V27     V     0.3724   0.8045   0.1259
V28     V     0.3724   0.1955   0.374
V29     V     0.3724   0.5288   0.374
V30     V     0.3724   0.8621   0.374
V31     V     0.6276   0.1955   0.1259
V32     V     0.6276   0.5288   0.1259
V33     V     0.6276   0.8621   0.1259
V34     V     0.6276   0.1379   0.374
V35     V     0.6276   0.4712   0.374
V36     V     0.6276   0.8045   0.374
V37     V     0.8724   0.0288   0.374
V38     V     0.8724   0.3621   0.374
V39     V     0.8724   0.6955   0.374
V40     V     0.8724   0.3045   0.1259
V41     V     0.8724   0.6379   0.1259
V42     V     0.8724   0.9712   0.1259
V43     V     0.1276   0.0288   0.1259
V44     V     0.1276   0.3621   0.1259
V45     V     0.1276   0.6955   0.1259
V46     V     0.1276   0.3045   0.374
V47     V     0.1276   0.6379   0.374
V48     V     0.1276   0.9712   0.374
loop_
_geom_bond_atom_site_label_1
_geom_bond_atom_site_label_2
_geom_bond_distance
_geom_bond_site_symmetry_2
_ccdc_geom_bond_type
V1     V4    10.0   .     S
V1     V7    10.0   .     S
V1     V16    10.0   .     S
V1     V3    10.0   1_545     S
V1     V2    10.0   .     S
V1     V31    10.0   1_556     S
V2     V5    10.0   .     S
V2     V8    10.0   .     S
V2     V17    10.0   .     S
V2     V3    10.0   .     S
V2     V32    10.0   1_556     S
V3     V6    10.0   .     S
V3     V9    10.0   .     S
V3     V18    10.0   .     S
V3     V1    10.0   1_565     S
V3     V33    10.0   1_556     S
V4     V10    10.0   .     S
V4     V13    10.0   .     S
V4     V5    10.0   .     S
V4     V6    10.0   1_545     S
V4     V34    10.0   .     S
V5     V11    10.0   .     S
V5     V14    10.0   .     S
V5     V6    10.0   .     S
V5     V35    10.0   .     S
V6     V12    10.0   .     S
V6     V15    10.0   .     S
V6     V4    10.0   1_565     S
V6     V36    10.0   .     S
V7     V10    10.0   .     S
V7     V19    10.0   .     S
V7     V8    10.0   .     S
V7     V9    10.0   1_545     S
V7     V25    10.0   1_556     S
V8     V11    10.0   .     S
V8     V20    10.0   .     S
V8     V9    10.0   .     S
V8     V26    10.0   1_556     S
V9     V12    10.0   .     S
V9     V21    10.0   .     S
V9     V7    10.0   1_565     S
V9     V27    10.0   1_556     S
V10     V22    10.0   .     S
V10     V12    10.0   1_545     S
V10     V11    10.0   .     S
V10     V28    10.0   .     S
V11     V23    10.0   .     S
V11     V12    10.0   .     S
V11     V29    10.0   .     S
V12     V24    10.0   .     S
V12     V10    10.0   1_565     S
V12     V30    10.0   .     S
V13     V18    10.0   1_545     S
V13     V24    10.0   1_645     S
V13     V14    10.0   .     S
V13     V15    10.0   1_545     S
V13     V37    10.0   .     S
V14     V16    10.0   .     S
V14     V22    10.0   1_655     S
V14     V15    10.0   .     S
V14     V38    10.0   .     S
V15     V17    10.0   .     S
V15     V23    10.0   1_655     S
V15     V13    10.0   1_565     S
V15     V39    10.0   .     S
V16     V20    10.0   1_655     S
V16     V18    10.0   1_545     S
V16     V17    10.0   .     S
V16     V40    10.0   1_556     S
V17     V21    10.0   1_655     S
V17     V18    10.0   .     S
V17     V41    10.0   1_556     S
V18     V13    10.0   1_565     S
V18     V19    10.0   1_665     S
V18     V16    10.0   1_565     S
V18     V42    10.0   1_556     S
V19     V24    10.0   1_545     S
V19     V18    10.0   1_445     S
V19     V20    10.0   .     S
V19     V21    10.0   1_545     S
V19     V43    10.0   1_556     S
V20     V22    10.0   .     S
V20     V16    10.0   1_455     S
V20     V21    10.0   .     S
V20     V44    10.0   1_556     S
V21     V23    10.0   .     S
V21     V17    10.0   1_455     S
V21     V19    10.0   1_565     S
V21     V45    10.0   1_556     S
V22     V14    10.0   1_455     S
V22     V24    10.0   1_545     S
V22     V23    10.0   .     S
V22     V46    10.0   .     S
V23     V15    10.0   1_455     S
V23     V24    10.0   .     S
V23     V47    10.0   .     S
V24     V19    10.0   1_565     S
V24     V13    10.0   1_465     S
V24     V22    10.0   1_565     S
V24     V48    10.0   .     S
V25     V28    10.0   .     S
V25     V31    10.0   .     S
V25     V43    10.0   .     S
V25     V26    10.0   .     S
V25     V27    10.0   1_545     S
V25     V7    10.0   1_554     S
V26     V29    10.0   .     S
V26     V32    10.0   .     S
V26     V44    10.0   .     S
V26     V27    10.0   .     S
V26     V8    10.0   1_554     S
V27     V30    10.0   .     S
V27     V33    10.0   .     S
V27     V45    10.0   .     S
V27     V25    10.0   1_565     S
V27     V9    10.0   1_554     S
V28     V34    10.0   .     S
V28     V46    10.0   .     S
V28     V30    10.0   1_545     S
V28     V29    10.0   .     S
V29     V35    10.0   .     S
V29     V47    10.0   .     S
V29     V30    10.0   .     S
V30     V36    10.0   .     S
V30     V48    10.0   .     S
V30     V28    10.0   1_565     S
V31     V34    10.0   .     S
V31     V40    10.0   .     S
V31     V33    10.0   1_545     S
V31     V32    10.0   .     S
V31     V1    10.0   1_554     S
V32     V35    10.0   .     S
V32     V41    10.0   .     S
V32     V33    10.0   .     S
V32     V2    10.0   1_554     S
V33     V36    10.0   .     S
V33     V42    10.0   .     S
V33     V31    10.0   1_565     S
V33     V3    10.0   1_554     S
V34     V37    10.0   .     S
V34     V35    10.0   .     S
V34     V36    10.0   1_545     S
V35     V38    10.0   .     S
V35     V36    10.0   .     S
V36     V39    10.0   .     S
V36     V34    10.0   1_565     S
V37     V42    10.0   1_545     S
V37     V48    10.0   1_645     S
V37     V38    10.0   .     S
V37     V39    10.0   1_545     S
V38     V40    10.0   .     S
V38     V46    10.0   1_655     S
V38     V39    10.0   .     S
V39     V41    10.0   .     S
V39     V47    10.0   1_655     S
V39     V37    10.0   1_565     S
V40     V44    10.0   1_655     S
V40     V42    10.0   1_545     S
V40     V41    10.0   .     S
V40     V16    10.0   1_554     S
V41     V45    10.0   1_655     S
V41     V42    10.0   .     S
V41     V17    10.0   1_554     S
V42     V37    10.0   1_565     S
V42     V43    10.0   1_665     S
V42     V40    10.0   1_565     S
V42     V18    10.0   1_554     S
V43     V48    10.0   1_545     S
V43     V42    10.0   1_445     S
V43     V44    10.0   .     S
V43     V45    10.0   1_545     S
V43     V19    10.0   1_554     S
V44     V46    10.0   .     S
V44     V40    10.0   1_455     S
V44     V45    10.0   .     S
V44     V20    10.0   1_554     S
V45     V47    10.0   .     S
V45     V41    10.0   1_455     S
V45     V43    10.0   1_565     S
V45     V21    10.0   1_554     S
V46     V38    10.0   1_455     S
V46     V48    10.0   1_545     S
V46     V47    10.0   .     S
V47     V39    10.0   1_455     S
V47     V48    10.0   .     S
V48     V43    10.0   1_565     S
V48     V37    10.0   1_465     S
V48     V46    10.0   1_565     S
