data_vbn
_audit_creation_date              2019-12-31
_audit_creation_method            'Pymatgen'
_symmetry_space_group_name_H-M    'P1'
_symmetry_Int_Tables_number       1
loop_
_symmetry_equiv_pos_as_xyz
  x,y,z
_cell_length_a                    32.5882
_cell_length_b                    36.5322
_cell_length_c                    29.2618
_cell_angle_alpha                 90.0
_cell_angle_beta                 90.0
_cell_angle_gamma                 90.0
loop_
_atom_site_label
_atom_site_type_symbol
_atom_site_fract_x
_atom_site_fract_y
_atom_site_fract_z
V1     V     0.0625   0.0998   0.906
V2     V     0.0625   0.5998   0.906
V3     V     0.5625   0.0998   0.906
V4     V     0.5625   0.5998   0.906
V5     V     0.4375   0.4002   0.0939
V6     V     0.4375   0.9002   0.0939
V7     V     0.9375   0.4002   0.0939
V8     V     0.9375   0.9002   0.0939
V9     V     0.1875   0.3498   0.906
V10     V     0.1875   0.8498   0.906
V11     V     0.6875   0.3498   0.906
V12     V     0.6875   0.8498   0.906
V13     V     0.3125   0.1502   0.094
V14     V     0.3125   0.6502   0.094
V15     V     0.8125   0.1502   0.094
V16     V     0.8125   0.6502   0.094
V17     V     0.4375   0.0998   0.5939
V18     V     0.4375   0.5998   0.5939
V19     V     0.9375   0.0998   0.5939
V20     V     0.9375   0.5998   0.5939
V21     V     0.0625   0.4002   0.406
V22     V     0.0625   0.9002   0.406
V23     V     0.5625   0.4002   0.406
V24     V     0.5625   0.9002   0.406
V25     V     0.3125   0.3498   0.5939
V26     V     0.3125   0.8498   0.5939
V27     V     0.8125   0.3498   0.5939
V28     V     0.8125   0.8498   0.5939
V29     V     0.1875   0.1502   0.406
V30     V     0.1875   0.6502   0.406
V31     V     0.6875   0.1502   0.406
V32     V     0.6875   0.6502   0.406
loop_
_geom_bond_atom_site_label_1
_geom_bond_atom_site_label_2
_geom_bond_distance
_geom_bond_site_symmetry_2
_ccdc_geom_bond_type
V1     V15    10.0   1_456     S
V1     V10    10.0   1_545     S
V1     V8    10.0   1_446     S
V1     V9    10.0   .     S
V1     V13    10.0   1_556     S
V1     V19    10.0   1_455     S
V2     V16    10.0   1_456     S
V2     V9    10.0   .     S
V2     V7    10.0   1_456     S
V2     V10    10.0   .     S
V2     V14    10.0   1_556     S
V2     V20    10.0   1_455     S
V3     V13    10.0   1_556     S
V3     V12    10.0   1_545     S
V3     V6    10.0   1_546     S
V3     V11    10.0   .     S
V3     V15    10.0   1_556     S
V3     V17    10.0   .     S
V4     V14    10.0   1_556     S
V4     V11    10.0   .     S
V4     V5    10.0   1_556     S
V4     V12    10.0   .     S
V4     V16    10.0   1_556     S
V4     V18    10.0   .     S
V5     V13    10.0   .     S
V5     V9    10.0   1_554     S
V5     V14    10.0   .     S
V5     V11    10.0   1_554     S
V5     V4    10.0   1_554     S
V5     V23    10.0   .     S
V6     V14    10.0   .     S
V6     V10    10.0   1_554     S
V6     V13    10.0   1_565     S
V6     V12    10.0   1_554     S
V6     V3    10.0   1_564     S
V6     V24    10.0   .     S
V7     V15    10.0   .     S
V7     V11    10.0   1_554     S
V7     V16    10.0   .     S
V7     V9    10.0   1_654     S
V7     V2    10.0   1_654     S
V7     V21    10.0   1_655     S
V8     V16    10.0   .     S
V8     V12    10.0   1_554     S
V8     V15    10.0   1_565     S
V8     V10    10.0   1_654     S
V8     V1    10.0   1_664     S
V8     V22    10.0   1_655     S
V9     V5    10.0   1_556     S
V9     V7    10.0   1_456     S
V9     V13    10.0   1_556     S
V9     V25    10.0   .     S
V10     V6    10.0   1_556     S
V10     V1    10.0   1_565     S
V10     V8    10.0   1_456     S
V10     V14    10.0   1_556     S
V10     V26    10.0   .     S
V11     V7    10.0   1_556     S
V11     V5    10.0   1_556     S
V11     V15    10.0   1_556     S
V11     V27    10.0   .     S
V12     V8    10.0   1_556     S
V12     V3    10.0   1_565     S
V12     V6    10.0   1_556     S
V12     V16    10.0   1_556     S
V12     V28    10.0   .     S
V13     V6    10.0   1_545     S
V13     V3    10.0   1_554     S
V13     V1    10.0   1_554     S
V13     V9    10.0   1_554     S
V13     V29    10.0   .     S
V14     V4    10.0   1_554     S
V14     V2    10.0   1_554     S
V14     V10    10.0   1_554     S
V14     V30    10.0   .     S
V15     V8    10.0   1_545     S
V15     V1    10.0   1_654     S
V15     V3    10.0   1_554     S
V15     V11    10.0   1_554     S
V15     V31    10.0   .     S
V16     V2    10.0   1_654     S
V16     V4    10.0   1_554     S
V16     V12    10.0   1_554     S
V16     V32    10.0   .     S
V17     V31    10.0   .     S
V17     V24    10.0   1_545     S
V17     V25    10.0   .     S
V17     V29    10.0   .     S
V17     V26    10.0   1_545     S
V18     V32    10.0   .     S
V18     V23    10.0   .     S
V18     V26    10.0   .     S
V18     V30    10.0   .     S
V18     V25    10.0   .     S
V19     V29    10.0   1_655     S
V19     V22    10.0   1_645     S
V19     V27    10.0   .     S
V19     V31    10.0   .     S
V19     V28    10.0   1_545     S
V19     V1    10.0   1_655     S
V20     V30    10.0   1_655     S
V20     V21    10.0   1_655     S
V20     V28    10.0   .     S
V20     V32    10.0   .     S
V20     V27    10.0   .     S
V20     V2    10.0   1_655     S
V21     V29    10.0   .     S
V21     V25    10.0   .     S
V21     V30    10.0   .     S
V21     V20    10.0   1_455     S
V21     V27    10.0   1_455     S
V21     V7    10.0   1_455     S
V22     V30    10.0   .     S
V22     V26    10.0   .     S
V22     V29    10.0   1_565     S
V22     V19    10.0   1_465     S
V22     V28    10.0   1_455     S
V22     V8    10.0   1_455     S
V23     V31    10.0   .     S
V23     V27    10.0   .     S
V23     V32    10.0   .     S
V23     V25    10.0   .     S
V24     V32    10.0   .     S
V24     V28    10.0   .     S
V24     V31    10.0   1_565     S
V24     V17    10.0   1_565     S
V24     V26    10.0   .     S
V25     V29    10.0   .     S
V26     V17    10.0   1_565     S
V26     V30    10.0   .     S
V27     V21    10.0   1_655     S
V27     V31    10.0   .     S
V28     V19    10.0   1_565     S
V28     V22    10.0   1_655     S
V28     V32    10.0   .     S
V29     V22    10.0   1_545     S
V29     V19    10.0   1_455     S
V30     V20    10.0   1_455     S
V31     V24    10.0   1_545     S
