data_vbp
_audit_creation_date              2019-12-31
_audit_creation_method            'Pymatgen'
_symmetry_space_group_name_H-M    'P1'
_symmetry_Int_Tables_number       1
loop_
_symmetry_equiv_pos_as_xyz
  x,y,z
_cell_length_a                    35.8616
_cell_length_b                    27.6762
_cell_length_c                    34.5315
_cell_angle_alpha                 90.0
_cell_angle_beta                 90.0
_cell_angle_gamma                 90.0
loop_
_atom_site_label
_atom_site_type_symbol
_atom_site_fract_x
_atom_site_fract_y
_atom_site_fract_z
V1     V     0.2028   0.92   0.3798
V2     V     0.7028   0.92   0.3798
V3     V     0.2972   0.58   0.3798
V4     V     0.7972   0.58   0.3798
V5     V     0.2028   0.08   0.1202
V6     V     0.7028   0.08   0.1202
V7     V     0.2972   0.42   0.1202
V8     V     0.7972   0.42   0.1202
V9     V     0.4528   0.92   0.1202
V10     V     0.9528   0.92   0.1202
V11     V     0.0472   0.58   0.1202
V12     V     0.5472   0.58   0.1202
V13     V     0.4528   0.08   0.3798
V14     V     0.9528   0.08   0.3798
V15     V     0.0472   0.42   0.3798
V16     V     0.5472   0.42   0.3798
V17     V     0.2972   0.08   0.6202
V18     V     0.7972   0.08   0.6202
V19     V     0.2028   0.42   0.6202
V20     V     0.7028   0.42   0.6202
V21     V     0.2972   0.92   0.8798
V22     V     0.7972   0.92   0.8798
V23     V     0.2028   0.58   0.8798
V24     V     0.7028   0.58   0.8798
V25     V     0.0472   0.92   0.6202
V26     V     0.5472   0.92   0.6202
V27     V     0.4528   0.58   0.6202
V28     V     0.9528   0.58   0.6202
V29     V     0.0472   0.08   0.8798
V30     V     0.5472   0.08   0.8798
V31     V     0.4528   0.42   0.8798
V32     V     0.9528   0.42   0.8798
loop_
_geom_bond_atom_site_label_1
_geom_bond_atom_site_label_2
_geom_bond_distance
_geom_bond_site_symmetry_2
_ccdc_geom_bond_type
V1     V17    10.0   1_565     S
V1     V25    10.0   .     S
V1     V3    10.0   .     S
V1     V5    10.0   1_565     S
V1     V14    10.0   1_465     S
V1     V13    10.0   1_565     S
V2     V18    10.0   1_565     S
V2     V26    10.0   .     S
V2     V4    10.0   .     S
V2     V6    10.0   1_565     S
V2     V13    10.0   1_565     S
V2     V14    10.0   1_565     S
V3     V7    10.0   .     S
V3     V15    10.0   .     S
V3     V16    10.0   .     S
V3     V19    10.0   .     S
V3     V27    10.0   .     S
V4     V8    10.0   .     S
V4     V16    10.0   .     S
V4     V15    10.0   1_655     S
V4     V20    10.0   .     S
V4     V28    10.0   .     S
V5     V21    10.0   1_544     S
V5     V29    10.0   1_554     S
V5     V7    10.0   .     S
V5     V1    10.0   1_545     S
V5     V10    10.0   1_445     S
V5     V9    10.0   1_545     S
V6     V22    10.0   1_544     S
V6     V30    10.0   1_554     S
V6     V8    10.0   .     S
V6     V2    10.0   1_545     S
V6     V9    10.0   1_545     S
V6     V10    10.0   1_545     S
V7     V11    10.0   .     S
V7     V12    10.0   .     S
V7     V23    10.0   1_554     S
V7     V31    10.0   1_554     S
V8     V12    10.0   .     S
V8     V11    10.0   1_655     S
V8     V24    10.0   1_554     S
V8     V32    10.0   1_554     S
V9     V21    10.0   1_554     S
V9     V30    10.0   1_564     S
V9     V6    10.0   1_565     S
V9     V12    10.0   .     S
V9     V13    10.0   1_565     S
V9     V5    10.0   1_565     S
V10     V22    10.0   1_554     S
V10     V29    10.0   1_664     S
V10     V5    10.0   1_665     S
V10     V11    10.0   1_655     S
V10     V14    10.0   1_565     S
V10     V6    10.0   1_565     S
V11     V10    10.0   1_455     S
V11     V15    10.0   .     S
V11     V8    10.0   1_455     S
V11     V32    10.0   1_454     S
V11     V23    10.0   1_554     S
V12     V16    10.0   .     S
V12     V31    10.0   1_554     S
V12     V24    10.0   1_554     S
V13     V17    10.0   .     S
V13     V26    10.0   1_545     S
V13     V2    10.0   1_545     S
V13     V16    10.0   .     S
V13     V9    10.0   1_545     S
V13     V1    10.0   1_545     S
V14     V18    10.0   .     S
V14     V25    10.0   1_645     S
V14     V1    10.0   1_645     S
V14     V15    10.0   1_655     S
V14     V10    10.0   1_545     S
V14     V2    10.0   1_545     S
V15     V14    10.0   1_455     S
V15     V4    10.0   1_455     S
V15     V19    10.0   .     S
V15     V28    10.0   1_455     S
V16     V20    10.0   .     S
V16     V27    10.0   .     S
V17     V1    10.0   1_545     S
V17     V19    10.0   .     S
V17     V21    10.0   1_545     S
V17     V25    10.0   1_545     S
V17     V26    10.0   1_545     S
V18     V2    10.0   1_545     S
V18     V20    10.0   .     S
V18     V22    10.0   1_545     S
V18     V26    10.0   1_545     S
V18     V25    10.0   1_645     S
V19     V23    10.0   .     S
V19     V28    10.0   1_455     S
V19     V27    10.0   .     S
V20     V24    10.0   .     S
V20     V27    10.0   .     S
V20     V28    10.0   .     S
V21     V5    10.0   1_566     S
V21     V9    10.0   1_556     S
V21     V23    10.0   .     S
V21     V17    10.0   1_565     S
V21     V29    10.0   1_565     S
V21     V30    10.0   1_565     S
V22     V6    10.0   1_566     S
V22     V10    10.0   1_556     S
V22     V24    10.0   .     S
V22     V18    10.0   1_565     S
V22     V30    10.0   1_565     S
V22     V29    10.0   1_665     S
V23     V7    10.0   1_556     S
V23     V11    10.0   1_556     S
V23     V32    10.0   1_455     S
V23     V31    10.0   .     S
V24     V8    10.0   1_556     S
V24     V12    10.0   1_556     S
V24     V31    10.0   .     S
V24     V32    10.0   .     S
V25     V14    10.0   1_465     S
V25     V17    10.0   1_565     S
V25     V28    10.0   1_455     S
V25     V29    10.0   1_565     S
V25     V18    10.0   1_465     S
V26     V13    10.0   1_565     S
V26     V18    10.0   1_565     S
V26     V27    10.0   .     S
V26     V30    10.0   1_565     S
V26     V17    10.0   1_565     S
V27     V31    10.0   .     S
V28     V15    10.0   1_655     S
V28     V19    10.0   1_655     S
V28     V25    10.0   1_655     S
V28     V32    10.0   .     S
V29     V5    10.0   1_556     S
V29     V10    10.0   1_446     S
V29     V21    10.0   1_545     S
V29     V32    10.0   1_455     S
V29     V25    10.0   1_545     S
V29     V22    10.0   1_445     S
V30     V6    10.0   1_556     S
V30     V9    10.0   1_546     S
V30     V22    10.0   1_545     S
V30     V31    10.0   .     S
V30     V26    10.0   1_545     S
V30     V21    10.0   1_545     S
V31     V7    10.0   1_556     S
V31     V12    10.0   1_556     S
V32     V8    10.0   1_556     S
V32     V11    10.0   1_656     S
V32     V23    10.0   1_655     S
V32     V29    10.0   1_655     S
