data_vbq
_audit_creation_date              2019-12-31
_audit_creation_method            'Pymatgen'
_symmetry_space_group_name_H-M    'P1'
_symmetry_Int_Tables_number       1
loop_
_symmetry_equiv_pos_as_xyz
  x,y,z
_cell_length_a                    35.2884
_cell_length_b                    35.4565
_cell_length_c                    25.8948
_cell_angle_alpha                 90.0
_cell_angle_beta                 90.0
_cell_angle_gamma                 90.0
loop_
_atom_site_label
_atom_site_type_symbol
_atom_site_fract_x
_atom_site_fract_y
_atom_site_fract_z
V1     V     0.1697   0.1338   0.5909
V2     V     0.6697   0.1338   0.5909
V3     V     0.0803   0.3662   0.4091
V4     V     0.5803   0.3662   0.4091
V5     V     0.4197   0.1338   0.4091
V6     V     0.9197   0.1338   0.4091
V7     V     0.3303   0.3662   0.5909
V8     V     0.8303   0.3662   0.5909
V9     V     0.4197   0.3662   0.0909
V10     V     0.9197   0.3662   0.0909
V11     V     0.3303   0.1338   0.9091
V12     V     0.8303   0.1338   0.9091
V13     V     0.1697   0.3662   0.9091
V14     V     0.6697   0.3662   0.9091
V15     V     0.0803   0.1338   0.0909
V16     V     0.5803   0.1338   0.0909
V17     V     0.4197   0.8662   0.9091
V18     V     0.9197   0.8662   0.9091
V19     V     0.3303   0.6338   0.0909
V20     V     0.8303   0.6338   0.0909
V21     V     0.0803   0.6338   0.9091
V22     V     0.5803   0.6338   0.9091
V23     V     0.1697   0.8662   0.0909
V24     V     0.6697   0.8662   0.0909
V25     V     0.1697   0.6338   0.4091
V26     V     0.6697   0.6338   0.4091
V27     V     0.0803   0.8662   0.5909
V28     V     0.5803   0.8662   0.5909
V29     V     0.4197   0.6338   0.5909
V30     V     0.9197   0.6338   0.5909
V31     V     0.3303   0.8662   0.4091
V32     V     0.8303   0.8662   0.4091
loop_
_geom_bond_atom_site_label_1
_geom_bond_atom_site_label_2
_geom_bond_distance
_geom_bond_site_symmetry_2
_ccdc_geom_bond_type
V1     V3    10.0   .     S
V1     V6    10.0   1_455     S
V1     V7    10.0   .     S
V1     V5    10.0   .     S
V1     V11    10.0   .     S
V1     V27    10.0   1_545     S
V2     V4    10.0   .     S
V2     V5    10.0   .     S
V2     V8    10.0   .     S
V2     V6    10.0   .     S
V2     V12    10.0   .     S
V2     V28    10.0   1_545     S
V3     V6    10.0   1_455     S
V3     V8    10.0   1_455     S
V3     V7    10.0   .     S
V3     V10    10.0   1_455     S
V3     V25    10.0   .     S
V4     V5    10.0   .     S
V4     V7    10.0   .     S
V4     V8    10.0   .     S
V4     V9    10.0   .     S
V4     V26    10.0   .     S
V5     V7    10.0   .     S
V5     V16    10.0   .     S
V5     V31    10.0   1_545     S
V6     V3    10.0   1_655     S
V6     V1    10.0   1_655     S
V6     V8    10.0   .     S
V6     V15    10.0   1_655     S
V6     V32    10.0   1_545     S
V7     V13    10.0   .     S
V7     V29    10.0   .     S
V8     V3    10.0   1_655     S
V8     V14    10.0   .     S
V8     V30    10.0   .     S
V9     V11    10.0   1_554     S
V9     V13    10.0   1_554     S
V9     V16    10.0   .     S
V9     V14    10.0   1_554     S
V9     V19    10.0   .     S
V10     V3    10.0   1_655     S
V10     V12    10.0   1_554     S
V10     V14    10.0   1_554     S
V10     V15    10.0   1_655     S
V10     V13    10.0   1_654     S
V10     V20    10.0   .     S
V11     V9    10.0   1_556     S
V11     V13    10.0   .     S
V11     V15    10.0   1_556     S
V11     V16    10.0   1_556     S
V11     V17    10.0   1_545     S
V12     V10    10.0   1_556     S
V12     V14    10.0   .     S
V12     V16    10.0   1_556     S
V12     V15    10.0   1_656     S
V12     V18    10.0   1_545     S
V13     V9    10.0   1_556     S
V13     V15    10.0   1_556     S
V13     V10    10.0   1_456     S
V13     V21    10.0   .     S
V14     V10    10.0   1_556     S
V14     V16    10.0   1_556     S
V14     V9    10.0   1_556     S
V14     V22    10.0   .     S
V15     V11    10.0   1_554     S
V15     V13    10.0   1_554     S
V15     V10    10.0   1_455     S
V15     V12    10.0   1_454     S
V15     V6    10.0   1_455     S
V15     V23    10.0   1_545     S
V16     V12    10.0   1_554     S
V16     V14    10.0   1_554     S
V16     V11    10.0   1_554     S
V16     V24    10.0   1_545     S
V17     V22    10.0   .     S
V17     V24    10.0   1_556     S
V17     V19    10.0   1_556     S
V17     V23    10.0   1_556     S
V17     V28    10.0   .     S
V17     V11    10.0   1_565     S
V18     V21    10.0   1_655     S
V18     V23    10.0   1_656     S
V18     V20    10.0   1_556     S
V18     V24    10.0   1_556     S
V18     V27    10.0   1_655     S
V18     V12    10.0   1_565     S
V19     V22    10.0   1_554     S
V19     V17    10.0   1_554     S
V19     V23    10.0   .     S
V19     V21    10.0   1_554     S
V19     V25    10.0   .     S
V20     V21    10.0   1_654     S
V20     V18    10.0   1_554     S
V20     V24    10.0   .     S
V20     V22    10.0   1_554     S
V20     V26    10.0   .     S
V21     V18    10.0   1_455     S
V21     V20    10.0   1_456     S
V21     V23    10.0   1_556     S
V21     V19    10.0   1_556     S
V21     V30    10.0   1_455     S
V22     V19    10.0   1_556     S
V22     V24    10.0   1_556     S
V22     V20    10.0   1_556     S
V22     V29    10.0   .     S
V23     V18    10.0   1_454     S
V23     V21    10.0   1_554     S
V23     V17    10.0   1_554     S
V23     V31    10.0   .     S
V23     V15    10.0   1_565     S
V24     V17    10.0   1_554     S
V24     V22    10.0   1_554     S
V24     V18    10.0   1_554     S
V24     V32    10.0   .     S
V24     V16    10.0   1_565     S
V25     V30    10.0   1_455     S
V25     V27    10.0   .     S
V25     V31    10.0   .     S
V25     V29    10.0   .     S
V26     V29    10.0   .     S
V26     V28    10.0   .     S
V26     V32    10.0   .     S
V26     V30    10.0   .     S
V27     V1    10.0   1_565     S
V27     V30    10.0   1_455     S
V27     V32    10.0   1_455     S
V27     V31    10.0   .     S
V27     V18    10.0   1_455     S
V28     V2    10.0   1_565     S
V28     V29    10.0   .     S
V28     V31    10.0   .     S
V28     V32    10.0   .     S
V29     V31    10.0   .     S
V30     V27    10.0   1_655     S
V30     V25    10.0   1_655     S
V30     V32    10.0   .     S
V30     V21    10.0   1_655     S
V31     V5    10.0   1_565     S
V32     V6    10.0   1_565     S
V32     V27    10.0   1_655     S
