data_vbr
_audit_creation_date              2019-12-31
_audit_creation_method            'Pymatgen'
_symmetry_space_group_name_H-M    'P1'
_symmetry_Int_Tables_number       1
loop_
_symmetry_equiv_pos_as_xyz
  x,y,z
_cell_length_a                    27.4207
_cell_length_b                    37.1448
_cell_length_c                    35.4257
_cell_angle_alpha                 90.0
_cell_angle_beta                 90.0
_cell_angle_gamma                 90.0
loop_
_atom_site_label
_atom_site_type_symbol
_atom_site_fract_x
_atom_site_fract_y
_atom_site_fract_z
V1     V     0.6823   0.1775   0.6189
V2     V     0.6823   0.6775   0.6189
V3     V     0.8177   0.0725   0.3811
V4     V     0.8177   0.5725   0.3811
V5     V     0.3177   0.1775   0.6189
V6     V     0.3177   0.6775   0.6189
V7     V     0.1823   0.0725   0.3811
V8     V     0.1823   0.5725   0.3811
V9     V     0.1823   0.4275   0.6189
V10     V     0.1823   0.9275   0.6189
V11     V     0.3177   0.3225   0.3811
V12     V     0.3177   0.8225   0.3811
V13     V     0.8177   0.4275   0.6189
V14     V     0.8177   0.9275   0.6189
V15     V     0.6823   0.3225   0.3811
V16     V     0.6823   0.8225   0.3811
V17     V     0.8177   0.1775   0.8811
V18     V     0.8177   0.6775   0.8811
V19     V     0.6823   0.0725   0.1189
V20     V     0.6823   0.5725   0.1189
V21     V     0.1823   0.1775   0.8811
V22     V     0.1823   0.6775   0.8811
V23     V     0.3177   0.0725   0.1189
V24     V     0.3177   0.5725   0.1189
V25     V     0.3177   0.4275   0.8811
V26     V     0.3177   0.9275   0.8811
V27     V     0.1823   0.3225   0.1189
V28     V     0.1823   0.8225   0.1189
V29     V     0.6823   0.4275   0.8811
V30     V     0.6823   0.9275   0.8811
V31     V     0.8177   0.3225   0.1189
V32     V     0.8177   0.8225   0.1189
loop_
_geom_bond_atom_site_label_1
_geom_bond_atom_site_label_2
_geom_bond_distance
_geom_bond_site_symmetry_2
_ccdc_geom_bond_type
V1     V3    10.0   .     S
V1     V5    10.0   .     S
V1     V14    10.0   1_545     S
V1     V15    10.0   .     S
V1     V13    10.0   .     S
V1     V17    10.0   .     S
V2     V4    10.0   .     S
V2     V6    10.0   .     S
V2     V13    10.0   .     S
V2     V16    10.0   .     S
V2     V14    10.0   .     S
V2     V18    10.0   .     S
V3     V7    10.0   1_655     S
V3     V14    10.0   1_545     S
V3     V16    10.0   1_545     S
V3     V15    10.0   .     S
V3     V19    10.0   .     S
V4     V8    10.0   1_655     S
V4     V13    10.0   .     S
V4     V15    10.0   .     S
V4     V16    10.0   .     S
V4     V20    10.0   .     S
V5     V7    10.0   .     S
V5     V11    10.0   .     S
V5     V9    10.0   .     S
V5     V10    10.0   1_545     S
V5     V21    10.0   .     S
V6     V8    10.0   .     S
V6     V12    10.0   .     S
V6     V10    10.0   .     S
V6     V9    10.0   .     S
V6     V22    10.0   .     S
V7     V3    10.0   1_455     S
V7     V11    10.0   .     S
V7     V10    10.0   1_545     S
V7     V12    10.0   1_545     S
V7     V23    10.0   .     S
V8     V4    10.0   1_455     S
V8     V12    10.0   .     S
V8     V9    10.0   .     S
V8     V11    10.0   .     S
V8     V24    10.0   .     S
V9     V11    10.0   .     S
V9     V13    10.0   1_455     S
V9     V25    10.0   .     S
V10     V7    10.0   1_565     S
V10     V5    10.0   1_565     S
V10     V12    10.0   .     S
V10     V14    10.0   1_455     S
V10     V26    10.0   .     S
V11     V15    10.0   .     S
V11     V27    10.0   .     S
V12     V7    10.0   1_565     S
V12     V16    10.0   .     S
V12     V28    10.0   .     S
V13     V15    10.0   .     S
V13     V9    10.0   1_655     S
V13     V29    10.0   .     S
V14     V3    10.0   1_565     S
V14     V1    10.0   1_565     S
V14     V16    10.0   .     S
V14     V10    10.0   1_655     S
V14     V30    10.0   .     S
V15     V31    10.0   .     S
V16     V3    10.0   1_565     S
V16     V32    10.0   .     S
V17     V19    10.0   1_556     S
V17     V21    10.0   1_655     S
V17     V30    10.0   1_545     S
V17     V31    10.0   1_556     S
V17     V29    10.0   .     S
V18     V20    10.0   1_556     S
V18     V22    10.0   1_655     S
V18     V29    10.0   .     S
V18     V32    10.0   1_556     S
V18     V30    10.0   .     S
V19     V17    10.0   1_554     S
V19     V23    10.0   .     S
V19     V30    10.0   1_544     S
V19     V32    10.0   1_545     S
V19     V31    10.0   .     S
V20     V18    10.0   1_554     S
V20     V24    10.0   .     S
V20     V29    10.0   1_554     S
V20     V31    10.0   .     S
V20     V32    10.0   .     S
V21     V17    10.0   1_455     S
V21     V23    10.0   1_556     S
V21     V27    10.0   1_556     S
V21     V25    10.0   .     S
V21     V26    10.0   1_545     S
V22     V18    10.0   1_455     S
V22     V24    10.0   1_556     S
V22     V28    10.0   1_556     S
V22     V26    10.0   .     S
V22     V25    10.0   .     S
V23     V21    10.0   1_554     S
V23     V27    10.0   .     S
V23     V26    10.0   1_544     S
V23     V28    10.0   1_545     S
V24     V22    10.0   1_554     S
V24     V28    10.0   .     S
V24     V25    10.0   1_554     S
V24     V27    10.0   .     S
V25     V24    10.0   1_556     S
V25     V27    10.0   1_556     S
V25     V29    10.0   .     S
V26     V23    10.0   1_566     S
V26     V21    10.0   1_565     S
V26     V28    10.0   1_556     S
V26     V30    10.0   .     S
V27     V21    10.0   1_554     S
V27     V25    10.0   1_554     S
V27     V31    10.0   1_455     S
V28     V22    10.0   1_554     S
V28     V23    10.0   1_565     S
V28     V26    10.0   1_554     S
V28     V32    10.0   1_455     S
V29     V20    10.0   1_556     S
V29     V31    10.0   1_556     S
V30     V19    10.0   1_566     S
V30     V17    10.0   1_565     S
V30     V32    10.0   1_556     S
V31     V17    10.0   1_554     S
V31     V29    10.0   1_554     S
V31     V27    10.0   1_655     S
V32     V19    10.0   1_565     S
V32     V18    10.0   1_554     S
V32     V30    10.0   1_554     S
V32     V28    10.0   1_655     S
