data_vbu
_audit_creation_date              2019-12-31
_audit_creation_method            'Pymatgen'
_symmetry_space_group_name_H-M    'P1'
_symmetry_Int_Tables_number       1
loop_
_symmetry_equiv_pos_as_xyz
  x,y,z
_cell_length_a                    33.3856
_cell_length_b                    28.4285
_cell_length_c                    39.0002
_cell_angle_alpha                 90.0
_cell_angle_beta                 90.0
_cell_angle_gamma                 90.0
loop_
_atom_site_label
_atom_site_type_symbol
_atom_site_fract_x
_atom_site_fract_y
_atom_site_fract_z
V1     V     0.1583   0.5785   0.1664
V2     V     0.1583   0.5785   0.6664
V3     V     0.6583   0.5785   0.1664
V4     V     0.6583   0.5785   0.6664
V5     V     0.0917   0.9215   0.1664
V6     V     0.0917   0.9215   0.6664
V7     V     0.5917   0.9215   0.1664
V8     V     0.5917   0.9215   0.6664
V9     V     0.1583   0.9215   0.4164
V10     V     0.1583   0.9215   0.9164
V11     V     0.6583   0.9215   0.4164
V12     V     0.6583   0.9215   0.9164
V13     V     0.0917   0.5785   0.4164
V14     V     0.0917   0.5785   0.9164
V15     V     0.5917   0.5785   0.4164
V16     V     0.5917   0.5785   0.9164
V17     V     0.3417   0.0785   0.0836
V18     V     0.3417   0.0785   0.5836
V19     V     0.8417   0.0785   0.0836
V20     V     0.8417   0.0785   0.5836
V21     V     0.4083   0.4215   0.0836
V22     V     0.4083   0.4215   0.5836
V23     V     0.9083   0.4215   0.0836
V24     V     0.9083   0.4215   0.5836
V25     V     0.3417   0.4215   0.3336
V26     V     0.3417   0.4215   0.8336
V27     V     0.8417   0.4215   0.3336
V28     V     0.8417   0.4215   0.8336
V29     V     0.4083   0.0785   0.3336
V30     V     0.4083   0.0785   0.8336
V31     V     0.9083   0.0785   0.3336
V32     V     0.9083   0.0785   0.8336
loop_
_geom_bond_atom_site_label_1
_geom_bond_atom_site_label_2
_geom_bond_distance
_geom_bond_site_symmetry_2
_ccdc_geom_bond_type
V1     V23    10.0   1_455     S
V1     V5    10.0   .     S
V1     V13    10.0   .     S
V1     V14    10.0   1_554     S
V1     V25    10.0   .     S
V1     V21    10.0   .     S
V2     V24    10.0   1_455     S
V2     V6    10.0   .     S
V2     V14    10.0   .     S
V2     V13    10.0   .     S
V2     V26    10.0   .     S
V2     V22    10.0   .     S
V3     V21    10.0   .     S
V3     V7    10.0   .     S
V3     V15    10.0   .     S
V3     V16    10.0   1_554     S
V3     V27    10.0   .     S
V3     V23    10.0   .     S
V4     V22    10.0   .     S
V4     V8    10.0   .     S
V4     V16    10.0   .     S
V4     V15    10.0   .     S
V4     V28    10.0   .     S
V4     V24    10.0   .     S
V5     V17    10.0   1_565     S
V5     V9    10.0   .     S
V5     V10    10.0   1_554     S
V5     V31    10.0   1_465     S
V5     V19    10.0   1_465     S
V6     V18    10.0   1_565     S
V6     V10    10.0   .     S
V6     V9    10.0   .     S
V6     V32    10.0   1_465     S
V6     V20    10.0   1_465     S
V7     V19    10.0   1_565     S
V7     V11    10.0   .     S
V7     V12    10.0   1_554     S
V7     V29    10.0   1_565     S
V7     V17    10.0   1_565     S
V8     V20    10.0   1_565     S
V8     V12    10.0   .     S
V8     V11    10.0   .     S
V8     V30    10.0   1_565     S
V8     V18    10.0   1_565     S
V9     V18    10.0   1_565     S
V9     V29    10.0   1_565     S
V9     V13    10.0   .     S
V9     V31    10.0   1_465     S
V10     V17    10.0   1_566     S
V10     V30    10.0   1_565     S
V10     V14    10.0   .     S
V10     V5    10.0   1_556     S
V10     V32    10.0   1_465     S
V11     V20    10.0   1_565     S
V11     V31    10.0   1_565     S
V11     V15    10.0   .     S
V11     V29    10.0   1_565     S
V12     V19    10.0   1_566     S
V12     V32    10.0   1_565     S
V12     V16    10.0   .     S
V12     V7    10.0   1_556     S
V12     V30    10.0   1_565     S
V13     V24    10.0   1_455     S
V13     V27    10.0   1_455     S
V13     V25    10.0   .     S
V14     V23    10.0   1_456     S
V14     V28    10.0   1_455     S
V14     V1    10.0   1_556     S
V14     V26    10.0   .     S
V15     V22    10.0   .     S
V15     V25    10.0   .     S
V15     V27    10.0   .     S
V16     V21    10.0   1_556     S
V16     V26    10.0   .     S
V16     V3    10.0   1_556     S
V16     V28    10.0   .     S
V17     V10    10.0   1_544     S
V17     V5    10.0   1_545     S
V17     V21    10.0   .     S
V17     V29    10.0   .     S
V17     V30    10.0   1_554     S
V17     V7    10.0   1_545     S
V18     V9    10.0   1_545     S
V18     V6    10.0   1_545     S
V18     V22    10.0   .     S
V18     V30    10.0   .     S
V18     V29    10.0   .     S
V18     V8    10.0   1_545     S
V19     V12    10.0   1_544     S
V19     V7    10.0   1_545     S
V19     V23    10.0   .     S
V19     V31    10.0   .     S
V19     V32    10.0   1_554     S
V19     V5    10.0   1_645     S
V20     V11    10.0   1_545     S
V20     V8    10.0   1_545     S
V20     V24    10.0   .     S
V20     V32    10.0   .     S
V20     V31    10.0   .     S
V20     V6    10.0   1_645     S
V21     V16    10.0   1_554     S
V21     V25    10.0   .     S
V21     V26    10.0   1_554     S
V22     V26    10.0   .     S
V22     V25    10.0   .     S
V23     V14    10.0   1_654     S
V23     V1    10.0   1_655     S
V23     V27    10.0   .     S
V23     V28    10.0   1_554     S
V24     V13    10.0   1_655     S
V24     V2    10.0   1_655     S
V24     V28    10.0   .     S
V24     V27    10.0   .     S
V25     V29    10.0   .     S
V26     V30    10.0   .     S
V26     V21    10.0   1_556     S
V27     V13    10.0   1_655     S
V27     V31    10.0   .     S
V28     V14    10.0   1_655     S
V28     V32    10.0   .     S
V28     V23    10.0   1_556     S
V29     V9    10.0   1_545     S
V29     V7    10.0   1_545     S
V29     V11    10.0   1_545     S
V30     V10    10.0   1_545     S
V30     V17    10.0   1_556     S
V30     V8    10.0   1_545     S
V30     V12    10.0   1_545     S
V31     V11    10.0   1_545     S
V31     V5    10.0   1_645     S
V31     V9    10.0   1_645     S
V32     V12    10.0   1_545     S
V32     V19    10.0   1_556     S
V32     V6    10.0   1_645     S
V32     V10    10.0   1_645     S
