data_vbv
_audit_creation_date              2019-12-31
_audit_creation_method            'Pymatgen'
_symmetry_space_group_name_H-M    'P1'
_symmetry_Int_Tables_number       1
loop_
_symmetry_equiv_pos_as_xyz
  x,y,z
_cell_length_a                    35.449
_cell_length_b                    33.353
_cell_length_c                    30.4848
_cell_angle_alpha                 90.0
_cell_angle_beta                 90.0
_cell_angle_gamma                 90.0
loop_
_atom_site_label
_atom_site_type_symbol
_atom_site_fract_x
_atom_site_fract_y
_atom_site_fract_z
V1     V     0.8629   0.0899   0.0905
V2     V     0.8629   0.5899   0.0905
V3     V     0.6371   0.1601   0.9095
V4     V     0.6371   0.6601   0.9095
V5     V     0.8629   0.3399   0.9095
V6     V     0.8629   0.8399   0.9095
V7     V     0.6371   0.4101   0.0905
V8     V     0.6371   0.9101   0.0905
V9     V     0.8629   0.1601   0.4095
V10     V     0.8629   0.6601   0.4095
V11     V     0.6371   0.0899   0.5905
V12     V     0.6371   0.5899   0.5905
V13     V     0.6371   0.3399   0.4095
V14     V     0.6371   0.8399   0.4095
V15     V     0.8629   0.4101   0.5905
V16     V     0.8629   0.9101   0.5905
V17     V     0.1371   0.1601   0.0905
V18     V     0.1371   0.6601   0.0905
V19     V     0.3629   0.0899   0.9095
V20     V     0.3629   0.5899   0.9095
V21     V     0.1371   0.4101   0.9095
V22     V     0.1371   0.9101   0.9095
V23     V     0.3629   0.3399   0.0905
V24     V     0.3629   0.8399   0.0905
V25     V     0.1371   0.0899   0.4095
V26     V     0.1371   0.5899   0.4095
V27     V     0.3629   0.1601   0.5905
V28     V     0.3629   0.6601   0.5905
V29     V     0.1371   0.3399   0.5905
V30     V     0.1371   0.8399   0.5905
V31     V     0.3629   0.4101   0.4095
V32     V     0.3629   0.9101   0.4095
loop_
_geom_bond_atom_site_label_1
_geom_bond_atom_site_label_2
_geom_bond_distance
_geom_bond_site_symmetry_2
_ccdc_geom_bond_type
V1     V3    10.0   1_554     S
V1     V5    10.0   1_554     S
V1     V8    10.0   1_545     S
V1     V6    10.0   1_544     S
V1     V9    10.0   .     S
V1     V17    10.0   1_655     S
V2     V4    10.0   1_554     S
V2     V6    10.0   1_554     S
V2     V7    10.0   .     S
V2     V5    10.0   1_554     S
V2     V10    10.0   .     S
V2     V18    10.0   1_655     S
V3     V1    10.0   1_556     S
V3     V7    10.0   1_556     S
V3     V5    10.0   .     S
V3     V8    10.0   1_546     S
V3     V11    10.0   .     S
V3     V19    10.0   .     S
V4     V2    10.0   1_556     S
V4     V8    10.0   1_556     S
V4     V6    10.0   .     S
V4     V7    10.0   1_556     S
V4     V12    10.0   .     S
V4     V20    10.0   .     S
V5     V1    10.0   1_556     S
V5     V2    10.0   1_556     S
V5     V7    10.0   1_556     S
V5     V15    10.0   .     S
V5     V21    10.0   1_655     S
V6     V2    10.0   1_556     S
V6     V1    10.0   1_566     S
V6     V8    10.0   1_556     S
V6     V16    10.0   .     S
V6     V22    10.0   1_655     S
V7     V3    10.0   1_554     S
V7     V4    10.0   1_554     S
V7     V5    10.0   1_554     S
V7     V13    10.0   .     S
V7     V23    10.0   .     S
V8     V4    10.0   1_554     S
V8     V3    10.0   1_564     S
V8     V1    10.0   1_565     S
V8     V6    10.0   1_554     S
V8     V14    10.0   .     S
V8     V24    10.0   .     S
V9     V11    10.0   .     S
V9     V15    10.0   .     S
V9     V13    10.0   .     S
V9     V16    10.0   1_545     S
V9     V25    10.0   1_655     S
V10     V12    10.0   .     S
V10     V16    10.0   .     S
V10     V14    10.0   .     S
V10     V15    10.0   .     S
V10     V26    10.0   1_655     S
V11     V13    10.0   .     S
V11     V16    10.0   1_545     S
V11     V14    10.0   1_545     S
V11     V27    10.0   .     S
V12     V14    10.0   .     S
V12     V15    10.0   .     S
V12     V13    10.0   .     S
V12     V28    10.0   .     S
V13     V15    10.0   .     S
V13     V31    10.0   .     S
V14     V11    10.0   1_565     S
V14     V16    10.0   .     S
V14     V32    10.0   .     S
V15     V29    10.0   1_655     S
V16     V9    10.0   1_565     S
V16     V11    10.0   1_565     S
V16     V30    10.0   1_655     S
V17     V19    10.0   1_554     S
V17     V21    10.0   1_554     S
V17     V23    10.0   .     S
V17     V22    10.0   1_544     S
V17     V25    10.0   .     S
V17     V1    10.0   1_455     S
V18     V20    10.0   1_554     S
V18     V22    10.0   1_554     S
V18     V24    10.0   .     S
V18     V21    10.0   1_554     S
V18     V26    10.0   .     S
V18     V2    10.0   1_455     S
V19     V17    10.0   1_556     S
V19     V23    10.0   1_556     S
V19     V22    10.0   1_545     S
V19     V24    10.0   1_546     S
V19     V27    10.0   .     S
V20     V18    10.0   1_556     S
V20     V24    10.0   1_556     S
V20     V21    10.0   .     S
V20     V23    10.0   1_556     S
V20     V28    10.0   .     S
V21     V17    10.0   1_556     S
V21     V18    10.0   1_556     S
V21     V23    10.0   1_556     S
V21     V29    10.0   .     S
V21     V5    10.0   1_455     S
V22     V18    10.0   1_556     S
V22     V17    10.0   1_566     S
V22     V19    10.0   1_565     S
V22     V24    10.0   1_556     S
V22     V30    10.0   .     S
V22     V6    10.0   1_455     S
V23     V19    10.0   1_554     S
V23     V20    10.0   1_554     S
V23     V21    10.0   1_554     S
V23     V31    10.0   .     S
V24     V20    10.0   1_554     S
V24     V19    10.0   1_564     S
V24     V22    10.0   1_554     S
V24     V32    10.0   .     S
V25     V27    10.0   .     S
V25     V30    10.0   1_545     S
V25     V32    10.0   1_545     S
V25     V29    10.0   .     S
V25     V9    10.0   1_455     S
V26     V28    10.0   .     S
V26     V29    10.0   .     S
V26     V31    10.0   .     S
V26     V30    10.0   .     S
V26     V10    10.0   1_455     S
V27     V32    10.0   1_545     S
V27     V31    10.0   .     S
V27     V29    10.0   .     S
V28     V31    10.0   .     S
V28     V32    10.0   .     S
V28     V30    10.0   .     S
V29     V31    10.0   .     S
V29     V15    10.0   1_455     S
V30     V25    10.0   1_565     S
V30     V32    10.0   .     S
V30     V16    10.0   1_455     S
V32     V25    10.0   1_565     S
V32     V27    10.0   1_565     S
