data_vbw
_audit_creation_date              2019-12-31
_audit_creation_method            'Pymatgen'
_symmetry_space_group_name_H-M    'P1'
_symmetry_Int_Tables_number       1
loop_
_symmetry_equiv_pos_as_xyz
  x,y,z
_cell_length_a                    36.2335
_cell_length_b                    29.5856
_cell_length_c                    34.2408
_cell_angle_alpha                 90.0
_cell_angle_beta                 90.0
_cell_angle_gamma                 90.0
loop_
_atom_site_label
_atom_site_type_symbol
_atom_site_fract_x
_atom_site_fract_y
_atom_site_fract_z
V1     V     0.362   0.8374   0.2897
V2     V     0.362   0.8374   0.7897
V3     V     0.638   0.8374   0.2897
V4     V     0.638   0.8374   0.7897
V5     V     0.638   0.6626   0.0397
V6     V     0.638   0.6626   0.5397
V7     V     0.362   0.6626   0.0397
V8     V     0.362   0.6626   0.5397
V9     V     0.138   0.8374   0.4603
V10     V     0.138   0.8374   0.9603
V11     V     0.862   0.8374   0.4603
V12     V     0.862   0.8374   0.9603
V13     V     0.862   0.6626   0.2103
V14     V     0.862   0.6626   0.7103
V15     V     0.138   0.6626   0.2103
V16     V     0.138   0.6626   0.7103
V17     V     0.638   0.3374   0.4603
V18     V     0.638   0.3374   0.9603
V19     V     0.362   0.3374   0.4603
V20     V     0.362   0.3374   0.9603
V21     V     0.362   0.1626   0.2103
V22     V     0.362   0.1626   0.7103
V23     V     0.638   0.1626   0.2103
V24     V     0.638   0.1626   0.7103
V25     V     0.862   0.3374   0.2897
V26     V     0.862   0.3374   0.7897
V27     V     0.138   0.3374   0.2897
V28     V     0.138   0.3374   0.7897
V29     V     0.138   0.1626   0.0397
V30     V     0.138   0.1626   0.5397
V31     V     0.862   0.1626   0.0397
V32     V     0.862   0.1626   0.5397
loop_
_geom_bond_atom_site_label_1
_geom_bond_atom_site_label_2
_geom_bond_distance
_geom_bond_site_symmetry_2
_ccdc_geom_bond_type
V1     V9    10.0   .     S
V1     V15    10.0   .     S
V1     V3    10.0   .     S
V1     V7    10.0   .     S
V1     V8    10.0   .     S
V1     V21    10.0   1_565     S
V2     V10    10.0   .     S
V2     V16    10.0   .     S
V2     V4    10.0   .     S
V2     V8    10.0   .     S
V2     V7    10.0   1_556     S
V2     V22    10.0   1_565     S
V3     V5    10.0   .     S
V3     V6    10.0   .     S
V3     V11    10.0   .     S
V3     V13    10.0   .     S
V3     V23    10.0   1_565     S
V4     V6    10.0   .     S
V4     V5    10.0   1_556     S
V4     V12    10.0   .     S
V4     V14    10.0   .     S
V4     V24    10.0   1_565     S
V5     V7    10.0   .     S
V5     V4    10.0   1_554     S
V5     V13    10.0   .     S
V5     V12    10.0   1_554     S
V5     V18    10.0   1_554     S
V6     V8    10.0   .     S
V6     V14    10.0   .     S
V6     V11    10.0   .     S
V6     V17    10.0   .     S
V7     V15    10.0   .     S
V7     V10    10.0   1_554     S
V7     V2    10.0   1_554     S
V7     V20    10.0   1_554     S
V8     V16    10.0   .     S
V8     V9    10.0   .     S
V8     V19    10.0   .     S
V9     V11    10.0   1_455     S
V9     V16    10.0   .     S
V9     V15    10.0   .     S
V9     V30    10.0   1_565     S
V10     V7    10.0   1_556     S
V10     V12    10.0   1_455     S
V10     V15    10.0   1_556     S
V10     V16    10.0   .     S
V10     V29    10.0   1_566     S
V11     V9    10.0   1_655     S
V11     V14    10.0   .     S
V11     V13    10.0   .     S
V11     V32    10.0   1_565     S
V12     V5    10.0   1_556     S
V12     V10    10.0   1_655     S
V12     V13    10.0   1_556     S
V12     V14    10.0   .     S
V12     V31    10.0   1_566     S
V13     V12    10.0   1_554     S
V13     V15    10.0   1_655     S
V13     V25    10.0   .     S
V14     V16    10.0   1_655     S
V14     V26    10.0   .     S
V15     V10    10.0   1_554     S
V15     V13    10.0   1_455     S
V15     V27    10.0   .     S
V16     V14    10.0   1_455     S
V16     V28    10.0   .     S
V17     V19    10.0   .     S
V17     V24    10.0   .     S
V17     V23    10.0   .     S
V17     V25    10.0   .     S
V17     V32    10.0   .     S
V18     V20    10.0   .     S
V18     V23    10.0   1_556     S
V18     V24    10.0   .     S
V18     V26    10.0   .     S
V18     V31    10.0   1_556     S
V18     V5    10.0   1_556     S
V19     V27    10.0   .     S
V19     V30    10.0   .     S
V19     V22    10.0   .     S
V19     V21    10.0   .     S
V20     V28    10.0   .     S
V20     V29    10.0   1_556     S
V20     V21    10.0   1_556     S
V20     V22    10.0   .     S
V20     V7    10.0   1_556     S
V21     V27    10.0   .     S
V21     V29    10.0   .     S
V21     V20    10.0   1_554     S
V21     V23    10.0   .     S
V21     V1    10.0   1_545     S
V22     V28    10.0   .     S
V22     V30    10.0   .     S
V22     V24    10.0   .     S
V22     V2    10.0   1_545     S
V23     V18    10.0   1_554     S
V23     V25    10.0   .     S
V23     V31    10.0   .     S
V23     V3    10.0   1_545     S
V24     V26    10.0   .     S
V24     V32    10.0   .     S
V24     V4    10.0   1_545     S
V25     V27    10.0   1_655     S
V25     V32    10.0   .     S
V25     V31    10.0   .     S
V26     V28    10.0   1_655     S
V26     V31    10.0   1_556     S
V26     V32    10.0   .     S
V27     V25    10.0   1_455     S
V27     V30    10.0   .     S
V27     V29    10.0   .     S
V28     V26    10.0   1_455     S
V28     V29    10.0   1_556     S
V28     V30    10.0   .     S
V29     V20    10.0   1_554     S
V29     V31    10.0   1_455     S
V29     V28    10.0   1_554     S
V29     V10    10.0   1_544     S
V30     V32    10.0   1_455     S
V30     V9    10.0   1_545     S
V31     V29    10.0   1_655     S
V31     V26    10.0   1_554     S
V31     V18    10.0   1_554     S
V31     V12    10.0   1_544     S
V32     V30    10.0   1_655     S
V32     V11    10.0   1_545     S
