data_vbx
_audit_creation_date              2019-12-31
_audit_creation_method            'Pymatgen'
_symmetry_space_group_name_H-M    'P1'
_symmetry_Int_Tables_number       1
loop_
_symmetry_equiv_pos_as_xyz
  x,y,z
_cell_length_a                    29.0864
_cell_length_b                    35.6336
_cell_length_c                    36.5526
_cell_angle_alpha                 90.0
_cell_angle_beta                 90.0
_cell_angle_gamma                 90.0
loop_
_atom_site_label
_atom_site_type_symbol
_atom_site_fract_x
_atom_site_fract_y
_atom_site_fract_z
V1     V     0.8281   0.4212   0.3868
V2     V     0.8281   0.9212   0.3868
V3     V     0.8281   0.0788   0.6132
V4     V     0.8281   0.5788   0.6132
V5     V     0.1719   0.4212   0.3868
V6     V     0.1719   0.9212   0.3868
V7     V     0.1719   0.0788   0.6132
V8     V     0.1719   0.5788   0.6132
V9     V     0.3281   0.1712   0.3868
V10     V     0.3281   0.6712   0.3868
V11     V     0.3281   0.3288   0.6132
V12     V     0.3281   0.8288   0.6132
V13     V     0.6719   0.1712   0.3868
V14     V     0.6719   0.6712   0.3868
V15     V     0.6719   0.3288   0.6132
V16     V     0.6719   0.8288   0.6132
V17     V     0.8281   0.4212   0.1132
V18     V     0.8281   0.9212   0.1132
V19     V     0.8281   0.0788   0.8868
V20     V     0.8281   0.5788   0.8868
V21     V     0.1719   0.4212   0.1132
V22     V     0.1719   0.9212   0.1132
V23     V     0.1719   0.0788   0.8868
V24     V     0.1719   0.5788   0.8868
V25     V     0.3281   0.1712   0.1132
V26     V     0.3281   0.6712   0.1132
V27     V     0.3281   0.3288   0.8868
V28     V     0.3281   0.8288   0.8868
V29     V     0.6719   0.1712   0.1132
V30     V     0.6719   0.6712   0.1132
V31     V     0.6719   0.3288   0.8868
V32     V     0.6719   0.8288   0.8868
loop_
_geom_bond_atom_site_label_1
_geom_bond_atom_site_label_2
_geom_bond_distance
_geom_bond_site_symmetry_2
_ccdc_geom_bond_type
V1     V13    10.0   .     S
V1     V15    10.0   .     S
V1     V14    10.0   .     S
V1     V4    10.0   .     S
V1     V5    10.0   1_655     S
V1     V17    10.0   .     S
V2     V14    10.0   .     S
V2     V16    10.0   .     S
V2     V13    10.0   1_565     S
V2     V3    10.0   1_565     S
V2     V6    10.0   1_655     S
V2     V18    10.0   .     S
V3     V16    10.0   1_545     S
V3     V13    10.0   .     S
V3     V15    10.0   .     S
V3     V2    10.0   1_545     S
V3     V7    10.0   1_655     S
V3     V19    10.0   .     S
V4     V15    10.0   .     S
V4     V14    10.0   .     S
V4     V16    10.0   .     S
V4     V8    10.0   1_655     S
V4     V20    10.0   .     S
V5     V10    10.0   .     S
V5     V8    10.0   .     S
V5     V1    10.0   1_455     S
V5     V9    10.0   .     S
V5     V11    10.0   .     S
V5     V21    10.0   .     S
V6     V9    10.0   1_565     S
V6     V7    10.0   1_565     S
V6     V2    10.0   1_455     S
V6     V10    10.0   .     S
V6     V12    10.0   .     S
V6     V22    10.0   .     S
V7     V9    10.0   .     S
V7     V11    10.0   .     S
V7     V6    10.0   1_545     S
V7     V3    10.0   1_455     S
V7     V12    10.0   1_545     S
V7     V23    10.0   .     S
V8     V10    10.0   .     S
V8     V12    10.0   .     S
V8     V4    10.0   1_455     S
V8     V11    10.0   .     S
V8     V24    10.0   .     S
V9     V6    10.0   1_545     S
V9     V11    10.0   .     S
V9     V13    10.0   .     S
V9     V25    10.0   .     S
V10     V12    10.0   .     S
V10     V14    10.0   .     S
V10     V26    10.0   .     S
V11     V15    10.0   .     S
V11     V27    10.0   .     S
V12     V7    10.0   1_565     S
V12     V16    10.0   .     S
V12     V28    10.0   .     S
V13     V2    10.0   1_545     S
V13     V15    10.0   .     S
V13     V29    10.0   .     S
V14     V16    10.0   .     S
V14     V30    10.0   .     S
V15     V31    10.0   .     S
V16     V3    10.0   1_565     S
V16     V32    10.0   .     S
V17     V29    10.0   .     S
V17     V31    10.0   1_554     S
V17     V30    10.0   .     S
V17     V20    10.0   1_554     S
V17     V21    10.0   1_655     S
V18     V30    10.0   .     S
V18     V32    10.0   1_554     S
V18     V29    10.0   1_565     S
V18     V19    10.0   1_564     S
V18     V22    10.0   1_655     S
V19     V32    10.0   1_545     S
V19     V29    10.0   1_556     S
V19     V31    10.0   .     S
V19     V18    10.0   1_546     S
V19     V23    10.0   1_655     S
V20     V31    10.0   .     S
V20     V30    10.0   1_556     S
V20     V32    10.0   .     S
V20     V17    10.0   1_556     S
V20     V24    10.0   1_655     S
V21     V26    10.0   .     S
V21     V24    10.0   1_554     S
V21     V17    10.0   1_455     S
V21     V25    10.0   .     S
V21     V27    10.0   1_554     S
V22     V25    10.0   1_565     S
V22     V23    10.0   1_564     S
V22     V18    10.0   1_455     S
V22     V26    10.0   .     S
V22     V28    10.0   1_554     S
V23     V25    10.0   1_556     S
V23     V27    10.0   .     S
V23     V22    10.0   1_546     S
V23     V19    10.0   1_455     S
V23     V28    10.0   1_545     S
V24     V26    10.0   1_556     S
V24     V28    10.0   .     S
V24     V21    10.0   1_556     S
V24     V20    10.0   1_455     S
V24     V27    10.0   .     S
V25     V22    10.0   1_545     S
V25     V23    10.0   1_554     S
V25     V27    10.0   1_554     S
V25     V29    10.0   .     S
V26     V24    10.0   1_554     S
V26     V28    10.0   1_554     S
V26     V30    10.0   .     S
V27     V21    10.0   1_556     S
V27     V25    10.0   1_556     S
V27     V31    10.0   .     S
V28     V22    10.0   1_556     S
V28     V23    10.0   1_565     S
V28     V26    10.0   1_556     S
V28     V32    10.0   .     S
V29     V18    10.0   1_545     S
V29     V19    10.0   1_554     S
V29     V31    10.0   1_554     S
V30     V20    10.0   1_554     S
V30     V32    10.0   1_554     S
V31     V17    10.0   1_556     S
V31     V29    10.0   1_556     S
V32     V18    10.0   1_556     S
V32     V19    10.0   1_565     S
V32     V30    10.0   1_556     S
