data_vby
_audit_creation_date              2019-12-31
_audit_creation_method            'Pymatgen'
_symmetry_space_group_name_H-M    'P1'
_symmetry_Int_Tables_number       1
loop_
_symmetry_equiv_pos_as_xyz
  x,y,z
_cell_length_a                    30.0003
_cell_length_b                    38.4283
_cell_length_c                    39.6428
_cell_angle_alpha                 90.0
_cell_angle_beta                 90.0
_cell_angle_gamma                 90.0
loop_
_atom_site_label
_atom_site_type_symbol
_atom_site_fract_x
_atom_site_fract_y
_atom_site_fract_z
V1     V     0.1444   0.871   0.25
V2     V     0.1444   0.871   0.75
V3     V     0.4778   0.871   0.25
V4     V     0.4778   0.871   0.75
V5     V     0.8111   0.871   0.25
V6     V     0.8111   0.871   0.75
V7     V     0.1889   0.129   0.25
V8     V     0.1889   0.129   0.75
V9     V     0.5222   0.129   0.25
V10     V     0.5222   0.129   0.75
V11     V     0.8556   0.129   0.25
V12     V     0.8556   0.129   0.75
V13     V     0.1889   0.871   0.0
V14     V     0.1889   0.871   0.5
V15     V     0.5222   0.871   0.0
V16     V     0.5222   0.871   0.5
V17     V     0.8556   0.871   0.0
V18     V     0.8556   0.871   0.5
V19     V     0.1444   0.129   0.0
V20     V     0.1444   0.129   0.5
V21     V     0.4778   0.129   0.0
V22     V     0.4778   0.129   0.5
V23     V     0.8111   0.129   0.0
V24     V     0.8111   0.129   0.5
V25     V     0.3111   0.371   0.25
V26     V     0.3111   0.371   0.75
V27     V     0.6444   0.371   0.25
V28     V     0.6444   0.371   0.75
V29     V     0.9778   0.371   0.25
V30     V     0.9778   0.371   0.75
V31     V     0.0222   0.629   0.25
V32     V     0.0222   0.629   0.75
V33     V     0.3556   0.629   0.25
V34     V     0.3556   0.629   0.75
V35     V     0.6889   0.629   0.25
V36     V     0.6889   0.629   0.75
V37     V     0.0222   0.371   0.0
V38     V     0.0222   0.371   0.5
V39     V     0.3556   0.371   0.0
V40     V     0.3556   0.371   0.5
V41     V     0.6889   0.371   0.0
V42     V     0.6889   0.371   0.5
V43     V     0.3111   0.629   0.0
V44     V     0.3111   0.629   0.5
V45     V     0.6444   0.629   0.0
V46     V     0.6444   0.629   0.5
V47     V     0.9778   0.629   0.0
V48     V     0.9778   0.629   0.5
loop_
_geom_bond_atom_site_label_1
_geom_bond_atom_site_label_2
_geom_bond_distance
_geom_bond_site_symmetry_2
_ccdc_geom_bond_type
V1     V7    10.0   1_565     S
V1     V14    10.0   .     S
V1     V13    10.0   .     S
V1     V31    10.0   .     S
V1     V3    10.0   .     S
V1     V5    10.0   1_455     S
V2     V8    10.0   1_565     S
V2     V13    10.0   1_556     S
V2     V14    10.0   .     S
V2     V32    10.0   .     S
V2     V4    10.0   .     S
V2     V6    10.0   1_455     S
V3     V9    10.0   1_565     S
V3     V16    10.0   .     S
V3     V15    10.0   .     S
V3     V33    10.0   .     S
V3     V5    10.0   .     S
V4     V10    10.0   1_565     S
V4     V15    10.0   1_556     S
V4     V16    10.0   .     S
V4     V34    10.0   .     S
V4     V6    10.0   .     S
V5     V11    10.0   1_565     S
V5     V18    10.0   .     S
V5     V17    10.0   .     S
V5     V35    10.0   .     S
V5     V1    10.0   1_655     S
V6     V12    10.0   1_565     S
V6     V17    10.0   1_556     S
V6     V18    10.0   .     S
V6     V36    10.0   .     S
V6     V2    10.0   1_655     S
V7     V1    10.0   1_545     S
V7     V20    10.0   .     S
V7     V19    10.0   .     S
V7     V25    10.0   .     S
V7     V11    10.0   1_455     S
V7     V9    10.0   .     S
V8     V2    10.0   1_545     S
V8     V19    10.0   1_556     S
V8     V20    10.0   .     S
V8     V26    10.0   .     S
V8     V12    10.0   1_455     S
V8     V10    10.0   .     S
V9     V3    10.0   1_545     S
V9     V22    10.0   .     S
V9     V21    10.0   .     S
V9     V27    10.0   .     S
V9     V11    10.0   .     S
V10     V4    10.0   1_545     S
V10     V21    10.0   1_556     S
V10     V22    10.0   .     S
V10     V28    10.0   .     S
V10     V12    10.0   .     S
V11     V5    10.0   1_545     S
V11     V24    10.0   .     S
V11     V23    10.0   .     S
V11     V29    10.0   .     S
V11     V7    10.0   1_655     S
V12     V6    10.0   1_545     S
V12     V23    10.0   1_556     S
V12     V24    10.0   .     S
V12     V30    10.0   .     S
V12     V8    10.0   1_655     S
V13     V19    10.0   1_565     S
V13     V2    10.0   1_554     S
V13     V43    10.0   .     S
V13     V17    10.0   1_455     S
V13     V15    10.0   .     S
V14     V20    10.0   1_565     S
V14     V44    10.0   .     S
V14     V18    10.0   1_455     S
V14     V16    10.0   .     S
V15     V21    10.0   1_565     S
V15     V4    10.0   1_554     S
V15     V45    10.0   .     S
V15     V17    10.0   .     S
V16     V22    10.0   1_565     S
V16     V46    10.0   .     S
V16     V18    10.0   .     S
V17     V23    10.0   1_565     S
V17     V6    10.0   1_554     S
V17     V47    10.0   .     S
V17     V13    10.0   1_655     S
V18     V24    10.0   1_565     S
V18     V48    10.0   .     S
V18     V14    10.0   1_655     S
V19     V13    10.0   1_545     S
V19     V8    10.0   1_554     S
V19     V37    10.0   .     S
V19     V21    10.0   .     S
V19     V23    10.0   1_455     S
V20     V14    10.0   1_545     S
V20     V38    10.0   .     S
V20     V22    10.0   .     S
V20     V24    10.0   1_455     S
V21     V15    10.0   1_545     S
V21     V10    10.0   1_554     S
V21     V39    10.0   .     S
V21     V23    10.0   .     S
V22     V16    10.0   1_545     S
V22     V40    10.0   .     S
V22     V24    10.0   .     S
V23     V17    10.0   1_545     S
V23     V12    10.0   1_554     S
V23     V41    10.0   .     S
V23     V19    10.0   1_655     S
V24     V18    10.0   1_545     S
V24     V42    10.0   .     S
V24     V20    10.0   1_655     S
V25     V33    10.0   .     S
V25     V40    10.0   .     S
V25     V39    10.0   .     S
V25     V29    10.0   1_455     S
V25     V27    10.0   .     S
V26     V34    10.0   .     S
V26     V39    10.0   1_556     S
V26     V40    10.0   .     S
V26     V30    10.0   1_455     S
V26     V28    10.0   .     S
V27     V35    10.0   .     S
V27     V42    10.0   .     S
V27     V41    10.0   .     S
V27     V29    10.0   .     S
V28     V36    10.0   .     S
V28     V41    10.0   1_556     S
V28     V42    10.0   .     S
V28     V30    10.0   .     S
V29     V31    10.0   1_655     S
V29     V38    10.0   1_655     S
V29     V37    10.0   1_655     S
V29     V25    10.0   1_655     S
V30     V32    10.0   1_655     S
V30     V37    10.0   1_656     S
V30     V38    10.0   1_655     S
V30     V26    10.0   1_655     S
V31     V29    10.0   1_455     S
V31     V48    10.0   1_455     S
V31     V47    10.0   1_455     S
V31     V33    10.0   .     S
V31     V35    10.0   1_455     S
V32     V30    10.0   1_455     S
V32     V47    10.0   1_456     S
V32     V48    10.0   1_455     S
V32     V34    10.0   .     S
V32     V36    10.0   1_455     S
V33     V44    10.0   .     S
V33     V43    10.0   .     S
V33     V35    10.0   .     S
V34     V43    10.0   1_556     S
V34     V44    10.0   .     S
V34     V36    10.0   .     S
V35     V46    10.0   .     S
V35     V45    10.0   .     S
V35     V31    10.0   1_655     S
V36     V45    10.0   1_556     S
V36     V46    10.0   .     S
V36     V32    10.0   1_655     S
V37     V47    10.0   1_455     S
V37     V30    10.0   1_454     S
V37     V29    10.0   1_455     S
V37     V39    10.0   .     S
V37     V41    10.0   1_455     S
V38     V48    10.0   1_455     S
V38     V29    10.0   1_455     S
V38     V30    10.0   1_455     S
V38     V40    10.0   .     S
V38     V42    10.0   1_455     S
V39     V43    10.0   .     S
V39     V26    10.0   1_554     S
V39     V41    10.0   .     S
V40     V44    10.0   .     S
V40     V42    10.0   .     S
V41     V45    10.0   .     S
V41     V28    10.0   1_554     S
V41     V37    10.0   1_655     S
V42     V46    10.0   .     S
V42     V38    10.0   1_655     S
V43     V34    10.0   1_554     S
V43     V47    10.0   1_455     S
V43     V45    10.0   .     S
V44     V48    10.0   1_455     S
V44     V46    10.0   .     S
V45     V36    10.0   1_554     S
V45     V47    10.0   .     S
V46     V48    10.0   .     S
V47     V37    10.0   1_655     S
V47     V32    10.0   1_654     S
V47     V31    10.0   1_655     S
V47     V43    10.0   1_655     S
V48     V38    10.0   1_655     S
V48     V31    10.0   1_655     S
V48     V32    10.0   1_655     S
V48     V44    10.0   1_655     S
