data_vca
_audit_creation_date              2019-12-31
_audit_creation_method            'Pymatgen'
_symmetry_space_group_name_H-M    'P1'
_symmetry_Int_Tables_number       1
loop_
_symmetry_equiv_pos_as_xyz
  x,y,z
_cell_length_a                    36.0582
_cell_length_b                    25.299
_cell_length_c                    36.6416
_cell_angle_alpha                 90.0
_cell_angle_beta                 90.0
_cell_angle_gamma                 90.0
loop_
_atom_site_label
_atom_site_type_symbol
_atom_site_fract_x
_atom_site_fract_y
_atom_site_fract_z
V1     V     0.0769   0.3356   0.6365
V2     V     0.5769   0.3356   0.6365
V3     V     0.4231   0.3356   0.8635
V4     V     0.9231   0.3356   0.8635
V5     V     0.1731   0.1645   0.8635
V6     V     0.6731   0.1645   0.8635
V7     V     0.3269   0.1645   0.6365
V8     V     0.8269   0.1645   0.6365
V9     V     0.1731   0.8356   0.6365
V10     V     0.6731   0.8356   0.6365
V11     V     0.3269   0.8356   0.8635
V12     V     0.8269   0.8356   0.8635
V13     V     0.0769   0.6644   0.8635
V14     V     0.5769   0.6644   0.8635
V15     V     0.4231   0.6644   0.6365
V16     V     0.9231   0.6644   0.6365
V17     V     0.0769   0.3356   0.3635
V18     V     0.5769   0.3356   0.3635
V19     V     0.4231   0.3356   0.1365
V20     V     0.9231   0.3356   0.1365
V21     V     0.1731   0.1645   0.1365
V22     V     0.6731   0.1645   0.1365
V23     V     0.3269   0.1645   0.3635
V24     V     0.8269   0.1645   0.3635
V25     V     0.1731   0.8356   0.3635
V26     V     0.6731   0.8356   0.3635
V27     V     0.3269   0.8356   0.1365
V28     V     0.8269   0.8356   0.1365
V29     V     0.4231   0.6644   0.3635
V30     V     0.9231   0.6644   0.3635
V31     V     0.0769   0.6644   0.1365
V32     V     0.5769   0.6644   0.1365
loop_
_geom_bond_atom_site_label_1
_geom_bond_atom_site_label_2
_geom_bond_distance
_geom_bond_site_symmetry_2
_ccdc_geom_bond_type
V1     V7    10.0   .     S
V1     V5    10.0   .     S
V1     V4    10.0   1_455     S
V1     V8    10.0   1_455     S
V1     V16    10.0   1_455     S
V1     V17    10.0   .     S
V2     V8    10.0   .     S
V2     V6    10.0   .     S
V2     V3    10.0   .     S
V2     V7    10.0   .     S
V2     V15    10.0   .     S
V2     V18    10.0   .     S
V3     V6    10.0   .     S
V3     V7    10.0   .     S
V3     V5    10.0   .     S
V3     V14    10.0   .     S
V3     V19    10.0   1_556     S
V4     V5    10.0   1_655     S
V4     V1    10.0   1_655     S
V4     V8    10.0   .     S
V4     V6    10.0   .     S
V4     V13    10.0   1_655     S
V4     V20    10.0   1_556     S
V5     V4    10.0   1_455     S
V5     V7    10.0   .     S
V5     V11    10.0   1_545     S
V5     V21    10.0   1_556     S
V6     V8    10.0   .     S
V6     V12    10.0   1_545     S
V6     V22    10.0   1_556     S
V7     V9    10.0   1_545     S
V7     V23    10.0   .     S
V8     V1    10.0   1_655     S
V8     V10    10.0   1_545     S
V8     V24    10.0   .     S
V9     V11    10.0   .     S
V9     V15    10.0   .     S
V9     V13    10.0   .     S
V9     V16    10.0   1_455     S
V9     V7    10.0   1_565     S
V9     V25    10.0   .     S
V10     V12    10.0   .     S
V10     V16    10.0   .     S
V10     V14    10.0   .     S
V10     V15    10.0   .     S
V10     V8    10.0   1_565     S
V10     V26    10.0   .     S
V11     V14    10.0   .     S
V11     V15    10.0   .     S
V11     V13    10.0   .     S
V11     V5    10.0   1_565     S
V11     V27    10.0   1_556     S
V12     V13    10.0   1_655     S
V12     V16    10.0   .     S
V12     V14    10.0   .     S
V12     V6    10.0   1_565     S
V12     V28    10.0   1_556     S
V13     V12    10.0   1_455     S
V13     V16    10.0   1_455     S
V13     V4    10.0   1_455     S
V13     V31    10.0   1_556     S
V14     V15    10.0   .     S
V14     V32    10.0   1_556     S
V15     V29    10.0   .     S
V16     V13    10.0   1_655     S
V16     V9    10.0   1_655     S
V16     V1    10.0   1_655     S
V16     V30    10.0   .     S
V17     V23    10.0   .     S
V17     V21    10.0   .     S
V17     V20    10.0   1_455     S
V17     V24    10.0   1_455     S
V17     V30    10.0   1_455     S
V18     V24    10.0   .     S
V18     V22    10.0   .     S
V18     V19    10.0   .     S
V18     V23    10.0   .     S
V18     V29    10.0   .     S
V19     V22    10.0   .     S
V19     V21    10.0   .     S
V19     V23    10.0   .     S
V19     V32    10.0   .     S
V19     V3    10.0   1_554     S
V20     V21    10.0   1_655     S
V20     V17    10.0   1_655     S
V20     V22    10.0   .     S
V20     V24    10.0   .     S
V20     V31    10.0   1_655     S
V20     V4    10.0   1_554     S
V21     V20    10.0   1_455     S
V21     V23    10.0   .     S
V21     V27    10.0   1_545     S
V21     V5    10.0   1_554     S
V22     V24    10.0   .     S
V22     V28    10.0   1_545     S
V22     V6    10.0   1_554     S
V23     V25    10.0   1_545     S
V24     V17    10.0   1_655     S
V24     V26    10.0   1_545     S
V25     V27    10.0   .     S
V25     V29    10.0   .     S
V25     V30    10.0   1_455     S
V25     V31    10.0   .     S
V25     V23    10.0   1_565     S
V26     V28    10.0   .     S
V26     V30    10.0   .     S
V26     V29    10.0   .     S
V26     V32    10.0   .     S
V26     V24    10.0   1_565     S
V27     V29    10.0   .     S
V27     V32    10.0   .     S
V27     V31    10.0   .     S
V27     V21    10.0   1_565     S
V27     V11    10.0   1_554     S
V28     V30    10.0   .     S
V28     V31    10.0   1_655     S
V28     V32    10.0   .     S
V28     V22    10.0   1_565     S
V28     V12    10.0   1_554     S
V29     V32    10.0   .     S
V30     V25    10.0   1_655     S
V30     V31    10.0   1_655     S
V30     V17    10.0   1_655     S
V31     V28    10.0   1_455     S
V31     V30    10.0   1_455     S
V31     V20    10.0   1_455     S
V31     V13    10.0   1_554     S
V32     V14    10.0   1_554     S
