data_vcd
_audit_creation_date              2019-12-31
_audit_creation_method            'Pymatgen'
_symmetry_space_group_name_H-M    'P1'
_symmetry_Int_Tables_number       1
loop_
_symmetry_equiv_pos_as_xyz
  x,y,z
_cell_length_a                    75.2756
_cell_length_b                    31.1099
_cell_length_c                    33.261
_cell_angle_alpha                 90.0
_cell_angle_beta                 90.0
_cell_angle_gamma                 90.0
loop_
_atom_site_label
_atom_site_type_symbol
_atom_site_fract_x
_atom_site_fract_y
_atom_site_fract_z
V1     V     0.4414   0.7143   0.4375
V2     V     0.4414   0.7143   0.9375
V3     V     0.3086   0.7143   0.4375
V4     V     0.3086   0.7143   0.9375
V5     V     0.4414   0.0357   0.4375
V6     V     0.4414   0.0357   0.9375
V7     V     0.3086   0.0357   0.4375
V8     V     0.3086   0.0357   0.9375
V9     V     0.4414   0.5357   0.1875
V10     V     0.4414   0.5357   0.6875
V11     V     0.3086   0.5357   0.1875
V12     V     0.3086   0.5357   0.6875
V13     V     0.4414   0.2143   0.1875
V14     V     0.4414   0.2143   0.6875
V15     V     0.3086   0.2143   0.1875
V16     V     0.3086   0.2143   0.6875
V17     V     0.5586   0.7857   0.3125
V18     V     0.5586   0.7857   0.8125
V19     V     0.6914   0.7857   0.3125
V20     V     0.6914   0.7857   0.8125
V21     V     0.5586   0.4643   0.3125
V22     V     0.5586   0.4643   0.8125
V23     V     0.6914   0.4643   0.3125
V24     V     0.6914   0.4643   0.8125
V25     V     0.5586   0.9643   0.0625
V26     V     0.5586   0.9643   0.5625
V27     V     0.6914   0.9643   0.0625
V28     V     0.6914   0.9643   0.5625
V29     V     0.6914   0.2857   0.0625
V30     V     0.6914   0.2857   0.5625
V31     V     0.5586   0.2857   0.0625
V32     V     0.5586   0.2857   0.5625
V33     V     0.9414   0.7143   0.1875
V34     V     0.9414   0.7143   0.6875
V35     V     0.8086   0.7143   0.1875
V36     V     0.8086   0.7143   0.6875
V37     V     0.9414   0.0357   0.1875
V38     V     0.9414   0.0357   0.6875
V39     V     0.8086   0.0357   0.1875
V40     V     0.8086   0.0357   0.6875
V41     V     0.9414   0.5357   0.4375
V42     V     0.9414   0.5357   0.9375
V43     V     0.8086   0.5357   0.4375
V44     V     0.8086   0.5357   0.9375
V45     V     0.9414   0.2143   0.4375
V46     V     0.9414   0.2143   0.9375
V47     V     0.8086   0.2143   0.4375
V48     V     0.8086   0.2143   0.9375
V49     V     0.0586   0.7857   0.0625
V50     V     0.0586   0.7857   0.5625
V51     V     0.1914   0.7857   0.0625
V52     V     0.1914   0.7857   0.5625
V53     V     0.0586   0.4643   0.0625
V54     V     0.0586   0.4643   0.5625
V55     V     0.1914   0.4643   0.0625
V56     V     0.1914   0.4643   0.5625
V57     V     0.0586   0.9643   0.3125
V58     V     0.0586   0.9643   0.8125
V59     V     0.1914   0.9643   0.3125
V60     V     0.1914   0.9643   0.8125
V61     V     0.0586   0.2857   0.3125
V62     V     0.0586   0.2857   0.8125
V63     V     0.1914   0.2857   0.3125
V64     V     0.1914   0.2857   0.8125
loop_
_geom_bond_atom_site_label_1
_geom_bond_atom_site_label_2
_geom_bond_distance
_geom_bond_site_symmetry_2
_ccdc_geom_bond_type
V1     V3    10.0   .     S
V1     V5    10.0   1_565     S
V1     V10    10.0   .     S
V1     V9    10.0   .     S
V1     V17    10.0   .     S
V2     V4    10.0   .     S
V2     V6    10.0   1_565     S
V2     V9    10.0   1_556     S
V2     V10    10.0   .     S
V2     V18    10.0   .     S
V3     V7    10.0   1_565     S
V3     V11    10.0   .     S
V3     V12    10.0   .     S
V3     V52    10.0   .     S
V4     V8    10.0   1_565     S
V4     V12    10.0   .     S
V4     V11    10.0   1_556     S
V4     V51    10.0   1_556     S
V5     V7    10.0   .     S
V5     V1    10.0   1_545     S
V5     V13    10.0   .     S
V5     V14    10.0   .     S
V5     V26    10.0   1_545     S
V6     V8    10.0   .     S
V6     V2    10.0   1_545     S
V6     V14    10.0   .     S
V6     V13    10.0   1_556     S
V6     V25    10.0   1_546     S
V7     V3    10.0   1_545     S
V7     V16    10.0   .     S
V7     V15    10.0   .     S
V7     V59    10.0   1_545     S
V8     V4    10.0   1_545     S
V8     V15    10.0   1_556     S
V8     V16    10.0   .     S
V8     V60    10.0   1_545     S
V9     V2    10.0   1_554     S
V9     V11    10.0   .     S
V9     V13    10.0   .     S
V9     V21    10.0   .     S
V10     V12    10.0   .     S
V10     V14    10.0   .     S
V10     V22    10.0   .     S
V11     V4    10.0   1_554     S
V11     V15    10.0   .     S
V11     V55    10.0   .     S
V12     V16    10.0   .     S
V12     V56    10.0   .     S
V13     V15    10.0   .     S
V13     V6    10.0   1_554     S
V13     V31    10.0   .     S
V14     V16    10.0   .     S
V14     V32    10.0   .     S
V15     V8    10.0   1_554     S
V15     V63    10.0   .     S
V16     V64    10.0   .     S
V17     V19    10.0   .     S
V17     V21    10.0   .     S
V17     V25    10.0   .     S
V17     V26    10.0   .     S
V18     V20    10.0   .     S
V18     V22    10.0   .     S
V18     V26    10.0   .     S
V18     V25    10.0   1_556     S
V19     V23    10.0   .     S
V19     V28    10.0   .     S
V19     V27    10.0   .     S
V19     V35    10.0   .     S
V20     V24    10.0   .     S
V20     V27    10.0   1_556     S
V20     V28    10.0   .     S
V20     V36    10.0   .     S
V21     V23    10.0   .     S
V21     V32    10.0   .     S
V21     V31    10.0   .     S
V22     V24    10.0   .     S
V22     V31    10.0   1_556     S
V22     V32    10.0   .     S
V23     V29    10.0   .     S
V23     V30    10.0   .     S
V23     V43    10.0   .     S
V24     V30    10.0   .     S
V24     V29    10.0   1_556     S
V24     V44    10.0   .     S
V25     V18    10.0   1_554     S
V25     V27    10.0   .     S
V25     V31    10.0   1_565     S
V25     V6    10.0   1_564     S
V26     V28    10.0   .     S
V26     V32    10.0   1_565     S
V26     V5    10.0   1_565     S
V27     V20    10.0   1_554     S
V27     V29    10.0   1_565     S
V27     V39    10.0   1_565     S
V28     V30    10.0   1_565     S
V28     V40    10.0   1_565     S
V29     V31    10.0   .     S
V29     V27    10.0   1_545     S
V29     V24    10.0   1_554     S
V29     V48    10.0   1_554     S
V30     V32    10.0   .     S
V30     V28    10.0   1_545     S
V30     V47    10.0   .     S
V31     V25    10.0   1_545     S
V31     V22    10.0   1_554     S
V32     V26    10.0   1_545     S
V33     V35    10.0   .     S
V33     V37    10.0   1_565     S
V33     V41    10.0   .     S
V33     V42    10.0   1_554     S
V33     V49    10.0   1_655     S
V34     V36    10.0   .     S
V34     V38    10.0   1_565     S
V34     V42    10.0   .     S
V34     V41    10.0   .     S
V34     V50    10.0   1_655     S
V35     V39    10.0   1_565     S
V35     V44    10.0   1_554     S
V35     V43    10.0   .     S
V36     V40    10.0   1_565     S
V36     V43    10.0   .     S
V36     V44    10.0   .     S
V37     V39    10.0   .     S
V37     V33    10.0   1_545     S
V37     V46    10.0   1_554     S
V37     V45    10.0   .     S
V37     V57    10.0   1_645     S
V38     V40    10.0   .     S
V38     V34    10.0   1_545     S
V38     V45    10.0   .     S
V38     V46    10.0   .     S
V38     V58    10.0   1_645     S
V39     V35    10.0   1_545     S
V39     V47    10.0   .     S
V39     V48    10.0   1_554     S
V39     V27    10.0   1_545     S
V40     V36    10.0   1_545     S
V40     V48    10.0   .     S
V40     V47    10.0   .     S
V40     V28    10.0   1_545     S
V41     V43    10.0   .     S
V41     V45    10.0   .     S
V41     V54    10.0   1_655     S
V42     V33    10.0   1_556     S
V42     V44    10.0   .     S
V42     V46    10.0   .     S
V42     V53    10.0   1_656     S
V43     V47    10.0   .     S
V44     V35    10.0   1_556     S
V44     V48    10.0   .     S
V45     V47    10.0   .     S
V45     V61    10.0   1_655     S
V46     V48    10.0   .     S
V46     V37    10.0   1_556     S
V46     V62    10.0   1_655     S
V48     V39    10.0   1_556     S
V48     V29    10.0   1_556     S
V49     V33    10.0   1_455     S
V49     V51    10.0   .     S
V49     V53    10.0   .     S
V49     V58    10.0   1_554     S
V49     V57    10.0   .     S
V50     V34    10.0   1_455     S
V50     V52    10.0   .     S
V50     V54    10.0   .     S
V50     V57    10.0   .     S
V50     V58    10.0   .     S
V51     V55    10.0   .     S
V51     V59    10.0   .     S
V51     V60    10.0   1_554     S
V51     V4    10.0   1_554     S
V52     V56    10.0   .     S
V52     V60    10.0   .     S
V52     V59    10.0   .     S
V53     V42    10.0   1_454     S
V53     V55    10.0   .     S
V53     V61    10.0   .     S
V53     V62    10.0   1_554     S
V54     V41    10.0   1_455     S
V54     V56    10.0   .     S
V54     V62    10.0   .     S
V54     V61    10.0   .     S
V55     V64    10.0   1_554     S
V55     V63    10.0   .     S
V56     V63    10.0   .     S
V56     V64    10.0   .     S
V57     V37    10.0   1_465     S
V57     V59    10.0   .     S
V57     V61    10.0   1_565     S
V58     V38    10.0   1_465     S
V58     V49    10.0   1_556     S
V58     V60    10.0   .     S
V58     V62    10.0   1_565     S
V59     V63    10.0   1_565     S
V59     V7    10.0   1_565     S
V60     V51    10.0   1_556     S
V60     V64    10.0   1_565     S
V60     V8    10.0   1_565     S
V61     V45    10.0   1_455     S
V61     V63    10.0   .     S
V61     V57    10.0   1_545     S
V62     V46    10.0   1_455     S
V62     V64    10.0   .     S
V62     V58    10.0   1_545     S
V62     V53    10.0   1_556     S
V63     V59    10.0   1_545     S
V64     V60    10.0   1_545     S
V64     V55    10.0   1_556     S
