data_vce
_audit_creation_date              2019-12-31
_audit_creation_method            'Pymatgen'
_symmetry_space_group_name_H-M    'P1'
_symmetry_Int_Tables_number       1
loop_
_symmetry_equiv_pos_as_xyz
  x,y,z
_cell_length_a                    29.0496
_cell_length_b                    69.7588
_cell_length_c                    35.671
_cell_angle_alpha                 90.0
_cell_angle_beta                 90.0
_cell_angle_gamma                 90.0
loop_
_atom_site_label
_atom_site_type_symbol
_atom_site_fract_x
_atom_site_fract_y
_atom_site_fract_z
V1     V     0.2029   0.0611   0.1875
V2     V     0.2029   0.0611   0.6875
V3     V     0.2971   0.9389   0.0625
V4     V     0.2971   0.9389   0.5625
V5     V     0.5471   0.0611   0.1875
V6     V     0.5471   0.0611   0.6875
V7     V     0.4529   0.9389   0.3125
V8     V     0.4529   0.9389   0.8125
V9     V     0.7029   0.0611   0.4375
V10     V     0.7029   0.0611   0.9375
V11     V     0.7971   0.9389   0.3125
V12     V     0.7971   0.9389   0.8125
V13     V     0.0471   0.0611   0.4375
V14     V     0.0471   0.0611   0.9375
V15     V     0.9529   0.9389   0.0625
V16     V     0.9529   0.9389   0.5625
V17     V     0.2029   0.6889   0.1875
V18     V     0.2029   0.6889   0.6875
V19     V     0.2971   0.8111   0.3125
V20     V     0.2971   0.8111   0.8125
V21     V     0.0471   0.6889   0.4375
V22     V     0.0471   0.6889   0.9375
V23     V     0.9529   0.8111   0.3125
V24     V     0.9529   0.8111   0.8125
V25     V     0.7029   0.6889   0.4375
V26     V     0.7029   0.6889   0.9375
V27     V     0.7971   0.8111   0.0625
V28     V     0.7971   0.8111   0.5625
V29     V     0.4529   0.8111   0.0625
V30     V     0.4529   0.8111   0.5625
V31     V     0.5471   0.6889   0.1875
V32     V     0.5471   0.6889   0.6875
V33     V     0.2029   0.5611   0.4375
V34     V     0.2029   0.5611   0.9375
V35     V     0.2971   0.4389   0.3125
V36     V     0.2971   0.4389   0.8125
V37     V     0.4529   0.4389   0.0625
V38     V     0.4529   0.4389   0.5625
V39     V     0.5471   0.5611   0.4375
V40     V     0.5471   0.5611   0.9375
V41     V     0.7971   0.4389   0.0625
V42     V     0.7971   0.4389   0.5625
V43     V     0.7029   0.5611   0.1875
V44     V     0.7029   0.5611   0.6875
V45     V     0.0471   0.5611   0.1875
V46     V     0.0471   0.5611   0.6875
V47     V     0.9529   0.4389   0.3125
V48     V     0.9529   0.4389   0.8125
V49     V     0.2029   0.1889   0.4375
V50     V     0.2029   0.1889   0.9375
V51     V     0.2971   0.3111   0.0625
V52     V     0.2971   0.3111   0.5625
V53     V     0.5471   0.1889   0.4375
V54     V     0.5471   0.1889   0.9375
V55     V     0.4529   0.3111   0.3125
V56     V     0.4529   0.3111   0.8125
V57     V     0.7029   0.1889   0.1875
V58     V     0.7029   0.1889   0.6875
V59     V     0.7971   0.3111   0.3125
V60     V     0.7971   0.3111   0.8125
V61     V     0.0471   0.1889   0.1875
V62     V     0.0471   0.1889   0.6875
V63     V     0.9529   0.3111   0.0625
V64     V     0.9529   0.3111   0.5625
loop_
_geom_bond_atom_site_label_1
_geom_bond_atom_site_label_2
_geom_bond_distance
_geom_bond_site_symmetry_2
_ccdc_geom_bond_type
V1     V3    10.0   1_545     S
V1     V13    10.0   .     S
V1     V14    10.0   1_554     S
V1     V5    10.0   .     S
V1     V61    10.0   .     S
V2     V4    10.0   1_545     S
V2     V14    10.0   .     S
V2     V13    10.0   .     S
V2     V6    10.0   .     S
V2     V62    10.0   .     S
V3     V1    10.0   1_565     S
V3     V8    10.0   1_554     S
V3     V7    10.0   .     S
V3     V15    10.0   1_455     S
V3     V29    10.0   .     S
V4     V2    10.0   1_565     S
V4     V7    10.0   .     S
V4     V8    10.0   .     S
V4     V16    10.0   1_455     S
V4     V30    10.0   .     S
V5     V7    10.0   1_545     S
V5     V9    10.0   .     S
V5     V10    10.0   1_554     S
V5     V57    10.0   .     S
V6     V8    10.0   1_545     S
V6     V10    10.0   .     S
V6     V9    10.0   .     S
V6     V58    10.0   .     S
V7     V5    10.0   1_565     S
V7     V11    10.0   .     S
V7     V19    10.0   .     S
V8     V3    10.0   1_556     S
V8     V6    10.0   1_565     S
V8     V12    10.0   .     S
V8     V20    10.0   .     S
V9     V11    10.0   1_545     S
V9     V13    10.0   1_655     S
V9     V53    10.0   .     S
V10     V12    10.0   1_545     S
V10     V5    10.0   1_556     S
V10     V14    10.0   1_655     S
V10     V54    10.0   .     S
V11     V9    10.0   1_565     S
V11     V15    10.0   .     S
V11     V16    10.0   .     S
V11     V23    10.0   .     S
V12     V10    10.0   1_565     S
V12     V16    10.0   .     S
V12     V15    10.0   1_556     S
V12     V24    10.0   .     S
V13     V16    10.0   1_445     S
V13     V9    10.0   1_455     S
V13     V49    10.0   .     S
V14     V15    10.0   1_446     S
V14     V1    10.0   1_556     S
V14     V10    10.0   1_455     S
V14     V50    10.0   .     S
V15     V14    10.0   1_664     S
V15     V12    10.0   1_554     S
V15     V3    10.0   1_655     S
V15     V27    10.0   .     S
V16     V13    10.0   1_665     S
V16     V4    10.0   1_655     S
V16     V28    10.0   .     S
V17     V19    10.0   .     S
V17     V21    10.0   .     S
V17     V22    10.0   1_554     S
V17     V31    10.0   .     S
V17     V45    10.0   .     S
V18     V20    10.0   .     S
V18     V22    10.0   .     S
V18     V21    10.0   .     S
V18     V32    10.0   .     S
V18     V46    10.0   .     S
V19     V29    10.0   .     S
V19     V30    10.0   .     S
V19     V23    10.0   1_455     S
V20     V30    10.0   .     S
V20     V29    10.0   1_556     S
V20     V24    10.0   1_455     S
V21     V23    10.0   1_455     S
V21     V25    10.0   1_455     S
V21     V33    10.0   .     S
V22     V24    10.0   1_455     S
V22     V17    10.0   1_556     S
V22     V26    10.0   1_455     S
V22     V34    10.0   .     S
V23     V21    10.0   1_655     S
V23     V27    10.0   .     S
V23     V28    10.0   .     S
V23     V19    10.0   1_655     S
V24     V22    10.0   1_655     S
V24     V28    10.0   .     S
V24     V27    10.0   1_556     S
V24     V20    10.0   1_655     S
V25     V28    10.0   .     S
V25     V32    10.0   .     S
V25     V31    10.0   .     S
V25     V21    10.0   1_655     S
V25     V39    10.0   .     S
V26     V27    10.0   1_556     S
V26     V31    10.0   1_556     S
V26     V32    10.0   .     S
V26     V22    10.0   1_655     S
V26     V40    10.0   .     S
V27     V26    10.0   1_554     S
V27     V24    10.0   1_554     S
V27     V29    10.0   .     S
V28     V30    10.0   .     S
V29     V31    10.0   .     S
V29     V20    10.0   1_554     S
V30     V32    10.0   .     S
V31     V26    10.0   1_554     S
V31     V43    10.0   .     S
V32     V44    10.0   .     S
V33     V35    10.0   .     S
V33     V46    10.0   .     S
V33     V45    10.0   .     S
V33     V39    10.0   .     S
V34     V36    10.0   .     S
V34     V45    10.0   1_556     S
V34     V46    10.0   .     S
V34     V40    10.0   .     S
V35     V37    10.0   .     S
V35     V38    10.0   .     S
V35     V47    10.0   1_455     S
V35     V55    10.0   .     S
V36     V38    10.0   .     S
V36     V37    10.0   1_556     S
V36     V48    10.0   1_455     S
V36     V56    10.0   .     S
V37     V40    10.0   1_554     S
V37     V36    10.0   1_554     S
V37     V41    10.0   .     S
V37     V51    10.0   .     S
V38     V39    10.0   .     S
V38     V42    10.0   .     S
V38     V52    10.0   .     S
V39     V44    10.0   .     S
V39     V43    10.0   .     S
V40     V37    10.0   1_556     S
V40     V43    10.0   1_556     S
V40     V44    10.0   .     S
V41     V43    10.0   .     S
V41     V48    10.0   1_554     S
V41     V47    10.0   .     S
V41     V63    10.0   .     S
V42     V44    10.0   .     S
V42     V47    10.0   .     S
V42     V48    10.0   .     S
V42     V64    10.0   .     S
V43     V40    10.0   1_554     S
V43     V45    10.0   1_655     S
V44     V46    10.0   1_655     S
V45     V34    10.0   1_554     S
V45     V47    10.0   1_455     S
V45     V43    10.0   1_455     S
V46     V48    10.0   1_455     S
V46     V44    10.0   1_455     S
V47     V45    10.0   1_655     S
V47     V35    10.0   1_655     S
V47     V59    10.0   .     S
V48     V41    10.0   1_556     S
V48     V46    10.0   1_655     S
V48     V36    10.0   1_655     S
V48     V60    10.0   .     S
V49     V52    10.0   .     S
V49     V62    10.0   .     S
V49     V61    10.0   .     S
V49     V53    10.0   .     S
V50     V51    10.0   1_556     S
V50     V61    10.0   1_556     S
V50     V62    10.0   .     S
V50     V54    10.0   .     S
V51     V50    10.0   1_554     S
V51     V56    10.0   1_554     S
V51     V55    10.0   .     S
V51     V63    10.0   1_455     S
V52     V55    10.0   .     S
V52     V56    10.0   .     S
V52     V64    10.0   1_455     S
V53     V55    10.0   .     S
V53     V58    10.0   .     S
V53     V57    10.0   .     S
V54     V56    10.0   .     S
V54     V57    10.0   1_556     S
V54     V58    10.0   .     S
V55     V59    10.0   .     S
V56     V51    10.0   1_556     S
V56     V60    10.0   .     S
V57     V54    10.0   1_554     S
V57     V59    10.0   .     S
V57     V61    10.0   1_655     S
V58     V60    10.0   .     S
V58     V62    10.0   1_655     S
V59     V63    10.0   .     S
V59     V64    10.0   .     S
V60     V64    10.0   .     S
V60     V63    10.0   1_556     S
V61     V50    10.0   1_554     S
V61     V63    10.0   1_455     S
V61     V57    10.0   1_455     S
V62     V64    10.0   1_455     S
V62     V58    10.0   1_455     S
V63     V61    10.0   1_655     S
V63     V60    10.0   1_554     S
V63     V51    10.0   1_655     S
V64     V62    10.0   1_655     S
V64     V52    10.0   1_655     S
