data_vcg
_audit_creation_date              2019-12-31
_audit_creation_method            'Pymatgen'
_symmetry_space_group_name_H-M    'P1'
_symmetry_Int_Tables_number       1
loop_
_symmetry_equiv_pos_as_xyz
  x,y,z
_cell_length_a                    36.732
_cell_length_b                    24.6932
_cell_length_c                    33.551
_cell_angle_alpha                 90.0
_cell_angle_beta                 90.0
_cell_angle_gamma                 90.0
loop_
_atom_site_label
_atom_site_type_symbol
_atom_site_fract_x
_atom_site_fract_y
_atom_site_fract_z
V1     V     0.0741   0.3302   0.25
V2     V     0.0741   0.3302   0.75
V3     V     0.5741   0.3302   0.25
V4     V     0.5741   0.3302   0.75
V5     V     0.3241   0.1698   0.25
V6     V     0.3241   0.1698   0.75
V7     V     0.8241   0.1698   0.25
V8     V     0.8241   0.1698   0.75
V9     V     0.1759   0.1698   0.0
V10     V     0.1759   0.1698   0.5
V11     V     0.6759   0.1698   0.0
V12     V     0.6759   0.1698   0.5
V13     V     0.4259   0.3302   0.0
V14     V     0.4259   0.3302   0.5
V15     V     0.9259   0.3302   0.0
V16     V     0.9259   0.3302   0.5
V17     V     0.1759   0.8302   0.25
V18     V     0.1759   0.8302   0.75
V19     V     0.6759   0.8302   0.25
V20     V     0.6759   0.8302   0.75
V21     V     0.4259   0.6698   0.25
V22     V     0.4259   0.6698   0.75
V23     V     0.9259   0.6698   0.25
V24     V     0.9259   0.6698   0.75
V25     V     0.0741   0.6698   0.0
V26     V     0.0741   0.6698   0.5
V27     V     0.5741   0.6698   0.0
V28     V     0.5741   0.6698   0.5
V29     V     0.3241   0.8302   0.0
V30     V     0.3241   0.8302   0.5
V31     V     0.8241   0.8302   0.0
V32     V     0.8241   0.8302   0.5
loop_
_geom_bond_atom_site_label_1
_geom_bond_atom_site_label_2
_geom_bond_distance
_geom_bond_site_symmetry_2
_ccdc_geom_bond_type
V1     V5    10.0   .     S
V1     V7    10.0   1_455     S
V1     V9    10.0   .     S
V1     V15    10.0   1_455     S
V1     V10    10.0   .     S
V1     V16    10.0   1_455     S
V1     V23    10.0   1_455     S
V2     V6    10.0   .     S
V2     V8    10.0   1_455     S
V2     V10    10.0   .     S
V2     V16    10.0   1_455     S
V2     V9    10.0   1_556     S
V2     V15    10.0   1_456     S
V2     V24    10.0   1_455     S
V3     V7    10.0   .     S
V3     V5    10.0   .     S
V3     V11    10.0   .     S
V3     V13    10.0   .     S
V3     V12    10.0   .     S
V3     V14    10.0   .     S
V3     V21    10.0   .     S
V4     V8    10.0   .     S
V4     V6    10.0   .     S
V4     V12    10.0   .     S
V4     V14    10.0   .     S
V4     V11    10.0   1_556     S
V4     V13    10.0   1_556     S
V4     V22    10.0   .     S
V5     V13    10.0   .     S
V5     V9    10.0   .     S
V5     V14    10.0   .     S
V5     V10    10.0   .     S
V5     V17    10.0   1_545     S
V6     V14    10.0   .     S
V6     V10    10.0   .     S
V6     V13    10.0   1_556     S
V6     V9    10.0   1_556     S
V6     V18    10.0   1_545     S
V7     V1    10.0   1_655     S
V7     V15    10.0   .     S
V7     V11    10.0   .     S
V7     V16    10.0   .     S
V7     V12    10.0   .     S
V7     V19    10.0   1_545     S
V8     V2    10.0   1_655     S
V8     V16    10.0   .     S
V8     V12    10.0   .     S
V8     V15    10.0   1_556     S
V8     V11    10.0   1_556     S
V8     V20    10.0   1_545     S
V9     V13    10.0   .     S
V9     V15    10.0   1_455     S
V9     V6    10.0   1_554     S
V9     V2    10.0   1_554     S
V9     V29    10.0   1_545     S
V10     V14    10.0   .     S
V10     V16    10.0   1_455     S
V10     V30    10.0   1_545     S
V11     V15    10.0   .     S
V11     V13    10.0   .     S
V11     V8    10.0   1_554     S
V11     V4    10.0   1_554     S
V11     V31    10.0   1_545     S
V12     V16    10.0   .     S
V12     V14    10.0   .     S
V12     V32    10.0   1_545     S
V13     V6    10.0   1_554     S
V13     V4    10.0   1_554     S
V13     V27    10.0   .     S
V14     V28    10.0   .     S
V15     V1    10.0   1_655     S
V15     V9    10.0   1_655     S
V15     V8    10.0   1_554     S
V15     V2    10.0   1_654     S
V15     V25    10.0   1_655     S
V16     V2    10.0   1_655     S
V16     V10    10.0   1_655     S
V16     V1    10.0   1_655     S
V16     V26    10.0   1_655     S
V17     V26    10.0   .     S
V17     V30    10.0   .     S
V17     V21    10.0   .     S
V17     V23    10.0   1_455     S
V17     V25    10.0   .     S
V17     V29    10.0   .     S
V17     V5    10.0   1_565     S
V18     V25    10.0   1_556     S
V18     V29    10.0   1_556     S
V18     V22    10.0   .     S
V18     V24    10.0   1_455     S
V18     V26    10.0   .     S
V18     V30    10.0   .     S
V18     V6    10.0   1_565     S
V19     V28    10.0   .     S
V19     V32    10.0   .     S
V19     V23    10.0   .     S
V19     V21    10.0   .     S
V19     V27    10.0   .     S
V19     V31    10.0   .     S
V19     V7    10.0   1_565     S
V20     V27    10.0   1_556     S
V20     V31    10.0   1_556     S
V20     V24    10.0   .     S
V20     V22    10.0   .     S
V20     V28    10.0   .     S
V20     V32    10.0   .     S
V20     V8    10.0   1_565     S
V21     V28    10.0   .     S
V21     V30    10.0   .     S
V21     V27    10.0   .     S
V21     V29    10.0   .     S
V22     V27    10.0   1_556     S
V22     V29    10.0   1_556     S
V22     V28    10.0   .     S
V22     V30    10.0   .     S
V23     V26    10.0   1_655     S
V23     V32    10.0   .     S
V23     V17    10.0   1_655     S
V23     V25    10.0   1_655     S
V23     V31    10.0   .     S
V23     V1    10.0   1_655     S
V24     V25    10.0   1_656     S
V24     V31    10.0   1_556     S
V24     V18    10.0   1_655     S
V24     V26    10.0   1_655     S
V24     V32    10.0   .     S
V24     V2    10.0   1_655     S
V25     V18    10.0   1_554     S
V25     V24    10.0   1_454     S
V25     V29    10.0   .     S
V25     V31    10.0   1_455     S
V25     V23    10.0   1_455     S
V25     V15    10.0   1_455     S
V26     V23    10.0   1_455     S
V26     V30    10.0   .     S
V26     V32    10.0   1_455     S
V26     V24    10.0   1_455     S
V26     V16    10.0   1_455     S
V27     V20    10.0   1_554     S
V27     V22    10.0   1_554     S
V27     V31    10.0   .     S
V27     V29    10.0   .     S
V28     V32    10.0   .     S
V28     V30    10.0   .     S
V29     V22    10.0   1_554     S
V29     V18    10.0   1_554     S
V29     V9    10.0   1_565     S
V30     V10    10.0   1_565     S
V31     V24    10.0   1_554     S
V31     V20    10.0   1_554     S
V31     V25    10.0   1_655     S
V31     V11    10.0   1_565     S
V32     V26    10.0   1_655     S
V32     V12    10.0   1_565     S
