data_vch
_audit_creation_date              2019-12-31
_audit_creation_method            'Pymatgen'
_symmetry_space_group_name_H-M    'P1'
_symmetry_Int_Tables_number       1
loop_
_symmetry_equiv_pos_as_xyz
  x,y,z
_cell_length_a                    29.9997
_cell_length_b                    38.5559
_cell_length_c                    37.059
_cell_angle_alpha                 90.0
_cell_angle_beta                 90.0
_cell_angle_gamma                 90.0
loop_
_atom_site_label
_atom_site_type_symbol
_atom_site_fract_x
_atom_site_fract_y
_atom_site_fract_z
V1     V     0.1935   0.878   0.3832
V2     V     0.5269   0.878   0.3832
V3     V     0.8602   0.878   0.3832
V4     V     0.0269   0.878   0.6168
V5     V     0.3602   0.878   0.6168
V6     V     0.6935   0.878   0.6168
V7     V     0.3065   0.122   0.3832
V8     V     0.6398   0.122   0.3832
V9     V     0.9731   0.122   0.3832
V10     V     0.1398   0.122   0.6168
V11     V     0.4731   0.122   0.6168
V12     V     0.8065   0.122   0.6168
V13     V     0.0269   0.378   0.3832
V14     V     0.3602   0.378   0.3832
V15     V     0.6935   0.378   0.3832
V16     V     0.1935   0.378   0.6168
V17     V     0.5269   0.378   0.6168
V18     V     0.8602   0.378   0.6168
V19     V     0.1398   0.622   0.3832
V20     V     0.4731   0.622   0.3832
V21     V     0.8065   0.622   0.3832
V22     V     0.3065   0.622   0.6168
V23     V     0.6398   0.622   0.6168
V24     V     0.9731   0.622   0.6168
V25     V     0.3065   0.878   0.8832
V26     V     0.6398   0.878   0.8832
V27     V     0.9731   0.878   0.8832
V28     V     0.1398   0.878   0.1168
V29     V     0.4731   0.878   0.1168
V30     V     0.8065   0.878   0.1168
V31     V     0.1935   0.122   0.8832
V32     V     0.5269   0.122   0.8832
V33     V     0.8602   0.122   0.8832
V34     V     0.0269   0.122   0.1168
V35     V     0.3602   0.122   0.1168
V36     V     0.6935   0.122   0.1168
V37     V     0.1398   0.378   0.8832
V38     V     0.4731   0.378   0.8832
V39     V     0.8065   0.378   0.8832
V40     V     0.3065   0.378   0.1168
V41     V     0.6398   0.378   0.1168
V42     V     0.9731   0.378   0.1168
V43     V     0.0269   0.622   0.8832
V44     V     0.3602   0.622   0.8832
V45     V     0.6935   0.622   0.8832
V46     V     0.1935   0.622   0.1168
V47     V     0.5269   0.622   0.1168
V48     V     0.8602   0.622   0.1168
loop_
_geom_bond_atom_site_label_1
_geom_bond_atom_site_label_2
_geom_bond_distance
_geom_bond_site_symmetry_2
_ccdc_geom_bond_type
V1     V5    10.0   .     S
V1     V4    10.0   .     S
V1     V3    10.0   1_455     S
V1     V2    10.0   .     S
V1     V7    10.0   1_565     S
V1     V19    10.0   .     S
V1     V28    10.0   .     S
V2     V6    10.0   .     S
V2     V5    10.0   .     S
V2     V3    10.0   .     S
V2     V8    10.0   1_565     S
V2     V20    10.0   .     S
V2     V29    10.0   .     S
V3     V4    10.0   1_655     S
V3     V6    10.0   .     S
V3     V1    10.0   1_655     S
V3     V9    10.0   1_565     S
V3     V21    10.0   .     S
V3     V30    10.0   .     S
V4     V3    10.0   1_455     S
V4     V5    10.0   .     S
V4     V6    10.0   1_455     S
V4     V10    10.0   1_565     S
V4     V24    10.0   1_455     S
V4     V27    10.0   1_455     S
V5     V6    10.0   .     S
V5     V11    10.0   1_565     S
V5     V22    10.0   .     S
V5     V25    10.0   .     S
V6     V4    10.0   1_655     S
V6     V12    10.0   1_565     S
V6     V23    10.0   .     S
V6     V26    10.0   .     S
V7     V11    10.0   .     S
V7     V9    10.0   1_455     S
V7     V8    10.0   .     S
V7     V10    10.0   .     S
V7     V1    10.0   1_545     S
V7     V14    10.0   .     S
V7     V35    10.0   .     S
V8     V12    10.0   .     S
V8     V9    10.0   .     S
V8     V11    10.0   .     S
V8     V2    10.0   1_545     S
V8     V15    10.0   .     S
V8     V36    10.0   .     S
V9     V10    10.0   1_655     S
V9     V7    10.0   1_655     S
V9     V12    10.0   .     S
V9     V3    10.0   1_545     S
V9     V13    10.0   1_655     S
V9     V34    10.0   1_655     S
V10     V9    10.0   1_455     S
V10     V11    10.0   .     S
V10     V12    10.0   1_455     S
V10     V4    10.0   1_545     S
V10     V16    10.0   .     S
V10     V31    10.0   .     S
V11     V12    10.0   .     S
V11     V5    10.0   1_545     S
V11     V17    10.0   .     S
V11     V32    10.0   .     S
V12     V10    10.0   1_655     S
V12     V6    10.0   1_545     S
V12     V18    10.0   .     S
V12     V33    10.0   .     S
V13     V14    10.0   .     S
V13     V15    10.0   1_455     S
V13     V18    10.0   1_455     S
V13     V16    10.0   .     S
V13     V19    10.0   .     S
V13     V9    10.0   1_455     S
V13     V42    10.0   1_455     S
V14     V15    10.0   .     S
V14     V16    10.0   .     S
V14     V17    10.0   .     S
V14     V20    10.0   .     S
V14     V40    10.0   .     S
V15     V13    10.0   1_655     S
V15     V17    10.0   .     S
V15     V18    10.0   .     S
V15     V21    10.0   .     S
V15     V41    10.0   .     S
V16     V18    10.0   1_455     S
V16     V17    10.0   .     S
V16     V22    10.0   .     S
V16     V37    10.0   .     S
V17     V18    10.0   .     S
V17     V23    10.0   .     S
V17     V38    10.0   .     S
V18     V13    10.0   1_655     S
V18     V16    10.0   1_655     S
V18     V24    10.0   .     S
V18     V39    10.0   .     S
V19     V24    10.0   1_455     S
V19     V20    10.0   .     S
V19     V21    10.0   1_455     S
V19     V22    10.0   .     S
V19     V46    10.0   .     S
V20     V22    10.0   .     S
V20     V21    10.0   .     S
V20     V23    10.0   .     S
V20     V47    10.0   .     S
V21     V23    10.0   .     S
V21     V19    10.0   1_655     S
V21     V24    10.0   .     S
V21     V48    10.0   .     S
V22     V24    10.0   1_455     S
V22     V23    10.0   .     S
V22     V44    10.0   .     S
V23     V24    10.0   .     S
V23     V45    10.0   .     S
V24     V19    10.0   1_655     S
V24     V22    10.0   1_655     S
V24     V4    10.0   1_655     S
V24     V43    10.0   1_655     S
V25     V29    10.0   1_556     S
V25     V27    10.0   1_455     S
V25     V26    10.0   .     S
V25     V28    10.0   1_556     S
V25     V31    10.0   1_565     S
V25     V44    10.0   .     S
V26     V30    10.0   1_556     S
V26     V27    10.0   .     S
V26     V29    10.0   1_556     S
V26     V32    10.0   1_565     S
V26     V45    10.0   .     S
V27     V28    10.0   1_656     S
V27     V25    10.0   1_655     S
V27     V30    10.0   1_556     S
V27     V33    10.0   1_565     S
V27     V43    10.0   1_655     S
V27     V4    10.0   1_655     S
V28     V27    10.0   1_454     S
V28     V25    10.0   1_554     S
V28     V29    10.0   .     S
V28     V30    10.0   1_455     S
V28     V34    10.0   1_565     S
V28     V46    10.0   .     S
V29     V25    10.0   1_554     S
V29     V26    10.0   1_554     S
V29     V30    10.0   .     S
V29     V35    10.0   1_565     S
V29     V47    10.0   .     S
V30     V26    10.0   1_554     S
V30     V27    10.0   1_554     S
V30     V28    10.0   1_655     S
V30     V36    10.0   1_565     S
V30     V48    10.0   .     S
V31     V35    10.0   1_556     S
V31     V34    10.0   1_556     S
V31     V33    10.0   1_455     S
V31     V32    10.0   .     S
V31     V25    10.0   1_545     S
V31     V37    10.0   .     S
V32     V36    10.0   1_556     S
V32     V35    10.0   1_556     S
V32     V33    10.0   .     S
V32     V26    10.0   1_545     S
V32     V38    10.0   .     S
V33     V34    10.0   1_656     S
V33     V36    10.0   1_556     S
V33     V31    10.0   1_655     S
V33     V27    10.0   1_545     S
V33     V39    10.0   .     S
V34     V33    10.0   1_454     S
V34     V31    10.0   1_554     S
V34     V35    10.0   .     S
V34     V36    10.0   1_455     S
V34     V28    10.0   1_545     S
V34     V42    10.0   1_455     S
V34     V9    10.0   1_455     S
V35     V31    10.0   1_554     S
V35     V32    10.0   1_554     S
V35     V36    10.0   .     S
V35     V29    10.0   1_545     S
V35     V40    10.0   .     S
V36     V32    10.0   1_554     S
V36     V33    10.0   1_554     S
V36     V34    10.0   1_655     S
V36     V30    10.0   1_545     S
V36     V41    10.0   .     S
V37     V40    10.0   1_556     S
V37     V38    10.0   .     S
V37     V39    10.0   1_455     S
V37     V42    10.0   1_456     S
V37     V43    10.0   .     S
V38     V41    10.0   1_556     S
V38     V39    10.0   .     S
V38     V40    10.0   1_556     S
V38     V44    10.0   .     S
V39     V42    10.0   1_556     S
V39     V37    10.0   1_655     S
V39     V41    10.0   1_556     S
V39     V45    10.0   .     S
V40     V37    10.0   1_554     S
V40     V38    10.0   1_554     S
V40     V42    10.0   1_455     S
V40     V41    10.0   .     S
V40     V46    10.0   .     S
V41     V38    10.0   1_554     S
V41     V39    10.0   1_554     S
V41     V42    10.0   .     S
V41     V47    10.0   .     S
V42     V39    10.0   1_554     S
V42     V37    10.0   1_654     S
V42     V40    10.0   1_655     S
V42     V48    10.0   .     S
V42     V34    10.0   1_655     S
V42     V13    10.0   1_655     S
V43     V44    10.0   .     S
V43     V45    10.0   1_455     S
V43     V48    10.0   1_456     S
V43     V46    10.0   1_556     S
V43     V27    10.0   1_455     S
V43     V24    10.0   1_455     S
V44     V45    10.0   .     S
V44     V46    10.0   1_556     S
V44     V47    10.0   1_556     S
V45     V43    10.0   1_655     S
V45     V47    10.0   1_556     S
V45     V48    10.0   1_556     S
V46     V44    10.0   1_554     S
V46     V43    10.0   1_554     S
V46     V48    10.0   1_455     S
V46     V47    10.0   .     S
V47     V45    10.0   1_554     S
V47     V44    10.0   1_554     S
V47     V48    10.0   .     S
V48     V43    10.0   1_654     S
V48     V45    10.0   1_554     S
V48     V46    10.0   1_655     S
