data_vci
_audit_creation_date              2019-12-31
_audit_creation_method            'Pymatgen'
_symmetry_space_group_name_H-M    'P1'
_symmetry_Int_Tables_number       1
loop_
_symmetry_equiv_pos_as_xyz
  x,y,z
_cell_length_a                    39.3488
_cell_length_b                    36.7013
_cell_length_c                    30.0
_cell_angle_alpha                 90.0
_cell_angle_beta                 90.0
_cell_angle_gamma                 90.0
loop_
_atom_site_label
_atom_site_type_symbol
_atom_site_fract_x
_atom_site_fract_y
_atom_site_fract_z
V1     V     0.3729   0.868   0.2078
V2     V     0.3729   0.868   0.5412
V3     V     0.3729   0.868   0.8745
V4     V     0.1271   0.868   0.2922
V5     V     0.1271   0.868   0.6255
V6     V     0.1271   0.868   0.9588
V7     V     0.3729   0.632   0.0412
V8     V     0.3729   0.632   0.3745
V9     V     0.3729   0.632   0.7078
V10     V     0.1271   0.632   0.1255
V11     V     0.1271   0.632   0.4588
V12     V     0.1271   0.632   0.7922
V13     V     0.6271   0.868   0.2078
V14     V     0.6271   0.868   0.5412
V15     V     0.6271   0.868   0.8745
V16     V     0.8729   0.868   0.2922
V17     V     0.8729   0.868   0.6255
V18     V     0.8729   0.868   0.9588
V19     V     0.6271   0.632   0.0412
V20     V     0.6271   0.632   0.3745
V21     V     0.6271   0.632   0.7078
V22     V     0.8729   0.632   0.1255
V23     V     0.8729   0.632   0.4588
V24     V     0.8729   0.632   0.7922
V25     V     0.3729   0.368   0.2922
V26     V     0.3729   0.368   0.6255
V27     V     0.3729   0.368   0.9588
V28     V     0.1271   0.368   0.2078
V29     V     0.1271   0.368   0.5412
V30     V     0.1271   0.368   0.8745
V31     V     0.3729   0.132   0.1255
V32     V     0.3729   0.132   0.4588
V33     V     0.3729   0.132   0.7922
V34     V     0.1271   0.132   0.0412
V35     V     0.1271   0.132   0.3745
V36     V     0.1271   0.132   0.7078
V37     V     0.6271   0.368   0.2922
V38     V     0.6271   0.368   0.6255
V39     V     0.6271   0.368   0.9588
V40     V     0.8729   0.368   0.2078
V41     V     0.8729   0.368   0.5412
V42     V     0.8729   0.368   0.8745
V43     V     0.6271   0.132   0.1255
V44     V     0.6271   0.132   0.4588
V45     V     0.6271   0.132   0.7922
V46     V     0.8729   0.132   0.0412
V47     V     0.8729   0.132   0.3745
V48     V     0.8729   0.132   0.7078
loop_
_geom_bond_atom_site_label_1
_geom_bond_atom_site_label_2
_geom_bond_distance
_geom_bond_site_symmetry_2
_ccdc_geom_bond_type
V1     V4    10.0   .     S
V1     V7    10.0   .     S
V1     V8    10.0   .     S
V1     V3    10.0   1_554     S
V1     V2    10.0   .     S
V1     V13    10.0   .     S
V1     V31    10.0   1_565     S
V2     V5    10.0   .     S
V2     V8    10.0   .     S
V2     V9    10.0   .     S
V2     V3    10.0   .     S
V2     V14    10.0   .     S
V2     V32    10.0   1_565     S
V3     V6    10.0   .     S
V3     V9    10.0   .     S
V3     V7    10.0   1_556     S
V3     V1    10.0   1_556     S
V3     V15    10.0   .     S
V3     V33    10.0   1_565     S
V4     V11    10.0   .     S
V4     V10    10.0   .     S
V4     V6    10.0   1_554     S
V4     V5    10.0   .     S
V4     V16    10.0   1_455     S
V4     V35    10.0   1_565     S
V5     V12    10.0   .     S
V5     V11    10.0   .     S
V5     V6    10.0   .     S
V5     V17    10.0   1_455     S
V5     V36    10.0   1_565     S
V6     V10    10.0   1_556     S
V6     V12    10.0   .     S
V6     V4    10.0   1_556     S
V6     V18    10.0   1_455     S
V6     V34    10.0   1_566     S
V7     V10    10.0   .     S
V7     V3    10.0   1_554     S
V7     V8    10.0   .     S
V7     V9    10.0   1_554     S
V7     V19    10.0   .     S
V7     V27    10.0   1_554     S
V8     V11    10.0   .     S
V8     V9    10.0   .     S
V8     V20    10.0   .     S
V8     V25    10.0   .     S
V9     V12    10.0   .     S
V9     V7    10.0   1_556     S
V9     V21    10.0   .     S
V9     V26    10.0   .     S
V10     V6    10.0   1_554     S
V10     V11    10.0   .     S
V10     V12    10.0   1_554     S
V10     V22    10.0   1_455     S
V10     V28    10.0   .     S
V11     V12    10.0   .     S
V11     V23    10.0   1_455     S
V11     V29    10.0   .     S
V12     V10    10.0   1_556     S
V12     V24    10.0   1_455     S
V12     V30    10.0   .     S
V13     V16    10.0   .     S
V13     V19    10.0   .     S
V13     V20    10.0   .     S
V13     V15    10.0   1_554     S
V13     V14    10.0   .     S
V13     V43    10.0   1_565     S
V14     V17    10.0   .     S
V14     V20    10.0   .     S
V14     V21    10.0   .     S
V14     V15    10.0   .     S
V14     V44    10.0   1_565     S
V15     V18    10.0   .     S
V15     V21    10.0   .     S
V15     V19    10.0   1_556     S
V15     V13    10.0   1_556     S
V15     V45    10.0   1_565     S
V16     V23    10.0   .     S
V16     V22    10.0   .     S
V16     V18    10.0   1_554     S
V16     V17    10.0   .     S
V16     V4    10.0   1_655     S
V16     V47    10.0   1_565     S
V17     V24    10.0   .     S
V17     V23    10.0   .     S
V17     V18    10.0   .     S
V17     V5    10.0   1_655     S
V17     V48    10.0   1_565     S
V18     V22    10.0   1_556     S
V18     V24    10.0   .     S
V18     V16    10.0   1_556     S
V18     V6    10.0   1_655     S
V18     V46    10.0   1_566     S
V19     V22    10.0   .     S
V19     V15    10.0   1_554     S
V19     V20    10.0   .     S
V19     V21    10.0   1_554     S
V19     V39    10.0   1_554     S
V20     V23    10.0   .     S
V20     V21    10.0   .     S
V20     V37    10.0   .     S
V21     V24    10.0   .     S
V21     V19    10.0   1_556     S
V21     V38    10.0   .     S
V22     V18    10.0   1_554     S
V22     V23    10.0   .     S
V22     V24    10.0   1_554     S
V22     V10    10.0   1_655     S
V22     V40    10.0   .     S
V23     V24    10.0   .     S
V23     V11    10.0   1_655     S
V23     V41    10.0   .     S
V24     V22    10.0   1_556     S
V24     V12    10.0   1_655     S
V24     V42    10.0   .     S
V25     V28    10.0   .     S
V25     V31    10.0   .     S
V25     V32    10.0   .     S
V25     V27    10.0   1_554     S
V25     V26    10.0   .     S
V25     V37    10.0   .     S
V26     V29    10.0   .     S
V26     V32    10.0   .     S
V26     V33    10.0   .     S
V26     V27    10.0   .     S
V26     V38    10.0   .     S
V27     V30    10.0   .     S
V27     V33    10.0   .     S
V27     V31    10.0   1_556     S
V27     V25    10.0   1_556     S
V27     V39    10.0   .     S
V27     V7    10.0   1_556     S
V28     V35    10.0   .     S
V28     V34    10.0   .     S
V28     V30    10.0   1_554     S
V28     V29    10.0   .     S
V28     V40    10.0   1_455     S
V29     V36    10.0   .     S
V29     V35    10.0   .     S
V29     V30    10.0   .     S
V29     V41    10.0   1_455     S
V30     V34    10.0   1_556     S
V30     V36    10.0   .     S
V30     V28    10.0   1_556     S
V30     V42    10.0   1_455     S
V31     V34    10.0   .     S
V31     V27    10.0   1_554     S
V31     V32    10.0   .     S
V31     V33    10.0   1_554     S
V31     V43    10.0   .     S
V31     V1    10.0   1_545     S
V32     V35    10.0   .     S
V32     V33    10.0   .     S
V32     V44    10.0   .     S
V32     V2    10.0   1_545     S
V33     V36    10.0   .     S
V33     V31    10.0   1_556     S
V33     V45    10.0   .     S
V33     V3    10.0   1_545     S
V34     V30    10.0   1_554     S
V34     V35    10.0   .     S
V34     V36    10.0   1_554     S
V34     V46    10.0   1_455     S
V34     V6    10.0   1_544     S
V35     V36    10.0   .     S
V35     V47    10.0   1_455     S
V35     V4    10.0   1_545     S
V36     V34    10.0   1_556     S
V36     V48    10.0   1_455     S
V36     V5    10.0   1_545     S
V37     V40    10.0   .     S
V37     V43    10.0   .     S
V37     V44    10.0   .     S
V37     V39    10.0   1_554     S
V37     V38    10.0   .     S
V38     V41    10.0   .     S
V38     V44    10.0   .     S
V38     V45    10.0   .     S
V38     V39    10.0   .     S
V39     V42    10.0   .     S
V39     V45    10.0   .     S
V39     V43    10.0   1_556     S
V39     V37    10.0   1_556     S
V39     V19    10.0   1_556     S
V40     V47    10.0   .     S
V40     V46    10.0   .     S
V40     V42    10.0   1_554     S
V40     V41    10.0   .     S
V40     V28    10.0   1_655     S
V41     V48    10.0   .     S
V41     V47    10.0   .     S
V41     V42    10.0   .     S
V41     V29    10.0   1_655     S
V42     V46    10.0   1_556     S
V42     V48    10.0   .     S
V42     V40    10.0   1_556     S
V42     V30    10.0   1_655     S
V43     V46    10.0   .     S
V43     V39    10.0   1_554     S
V43     V44    10.0   .     S
V43     V45    10.0   1_554     S
V43     V13    10.0   1_545     S
V44     V47    10.0   .     S
V44     V45    10.0   .     S
V44     V14    10.0   1_545     S
V45     V48    10.0   .     S
V45     V43    10.0   1_556     S
V45     V15    10.0   1_545     S
V46     V42    10.0   1_554     S
V46     V47    10.0   .     S
V46     V48    10.0   1_554     S
V46     V34    10.0   1_655     S
V46     V18    10.0   1_544     S
V47     V48    10.0   .     S
V47     V35    10.0   1_655     S
V47     V16    10.0   1_545     S
V48     V46    10.0   1_556     S
V48     V36    10.0   1_655     S
V48     V17    10.0   1_545     S
