data_vcj
_audit_creation_date              2019-12-31
_audit_creation_method            'Pymatgen'
_symmetry_space_group_name_H-M    'P1'
_symmetry_Int_Tables_number       1
loop_
_symmetry_equiv_pos_as_xyz
  x,y,z
_cell_length_a                    38.897
_cell_length_b                    27.0104
_cell_length_c                    27.7576
_cell_angle_alpha                 90.0
_cell_angle_beta                 90.0
_cell_angle_gamma                 90.0
loop_
_atom_site_label
_atom_site_type_symbol
_atom_site_fract_x
_atom_site_fract_y
_atom_site_fract_z
V1     V     0.0803   0.8833   0.083
V2     V     0.0803   0.8833   0.583
V3     V     0.5803   0.8833   0.083
V4     V     0.5803   0.8833   0.583
V5     V     0.4197   0.1167   0.417
V6     V     0.4197   0.1167   0.917
V7     V     0.9197   0.1167   0.417
V8     V     0.9197   0.1167   0.917
V9     V     0.3303   0.8833   0.167
V10     V     0.3303   0.8833   0.667
V11     V     0.8303   0.8833   0.167
V12     V     0.8303   0.8833   0.667
V13     V     0.1697   0.1167   0.333
V14     V     0.1697   0.1167   0.833
V15     V     0.6697   0.1167   0.333
V16     V     0.6697   0.1167   0.833
V17     V     0.0803   0.6167   0.333
V18     V     0.0803   0.6167   0.833
V19     V     0.5803   0.6167   0.333
V20     V     0.5803   0.6167   0.833
V21     V     0.4197   0.3833   0.167
V22     V     0.4197   0.3833   0.667
V23     V     0.9197   0.3833   0.167
V24     V     0.9197   0.3833   0.667
V25     V     0.3303   0.6167   0.417
V26     V     0.3303   0.6167   0.917
V27     V     0.8303   0.6167   0.417
V28     V     0.8303   0.6167   0.917
V29     V     0.1697   0.3833   0.083
V30     V     0.1697   0.3833   0.583
V31     V     0.6697   0.3833   0.083
V32     V     0.6697   0.3833   0.583
loop_
_geom_bond_atom_site_label_1
_geom_bond_atom_site_label_2
_geom_bond_distance
_geom_bond_site_symmetry_2
_ccdc_geom_bond_type
V1     V14    10.0   1_564     S
V1     V8    10.0   1_464     S
V1     V11    10.0   1_455     S
V1     V13    10.0   1_565     S
V1     V9    10.0   .     S
V1     V18    10.0   1_554     S
V1     V17    10.0   .     S
V2     V13    10.0   1_565     S
V2     V7    10.0   1_465     S
V2     V12    10.0   1_455     S
V2     V14    10.0   1_565     S
V2     V10    10.0   .     S
V2     V17    10.0   .     S
V2     V18    10.0   .     S
V3     V16    10.0   1_564     S
V3     V6    10.0   1_564     S
V3     V9    10.0   .     S
V3     V15    10.0   1_565     S
V3     V11    10.0   .     S
V3     V20    10.0   1_554     S
V3     V19    10.0   .     S
V4     V15    10.0   1_565     S
V4     V5    10.0   1_565     S
V4     V10    10.0   .     S
V4     V16    10.0   1_565     S
V4     V12    10.0   .     S
V4     V19    10.0   .     S
V4     V20    10.0   .     S
V5     V15    10.0   .     S
V5     V9    10.0   1_545     S
V5     V13    10.0   .     S
V5     V4    10.0   1_545     S
V5     V10    10.0   1_545     S
V5     V22    10.0   .     S
V5     V21    10.0   .     S
V6     V16    10.0   .     S
V6     V10    10.0   1_545     S
V6     V14    10.0   .     S
V6     V3    10.0   1_546     S
V6     V9    10.0   1_546     S
V6     V21    10.0   1_556     S
V6     V22    10.0   .     S
V7     V13    10.0   1_655     S
V7     V11    10.0   1_545     S
V7     V15    10.0   .     S
V7     V2    10.0   1_645     S
V7     V12    10.0   1_545     S
V7     V24    10.0   .     S
V7     V23    10.0   .     S
V8     V14    10.0   1_655     S
V8     V12    10.0   1_545     S
V8     V16    10.0   .     S
V8     V1    10.0   1_646     S
V8     V11    10.0   1_546     S
V8     V23    10.0   1_556     S
V8     V24    10.0   .     S
V9     V5    10.0   1_565     S
V9     V6    10.0   1_564     S
V9     V13    10.0   1_565     S
V9     V26    10.0   1_554     S
V9     V25    10.0   .     S
V10     V6    10.0   1_565     S
V10     V5    10.0   1_565     S
V10     V14    10.0   1_565     S
V10     V25    10.0   .     S
V10     V26    10.0   .     S
V11     V7    10.0   1_565     S
V11     V8    10.0   1_564     S
V11     V1    10.0   1_655     S
V11     V15    10.0   1_565     S
V11     V28    10.0   1_554     S
V11     V27    10.0   .     S
V12     V8    10.0   1_565     S
V12     V7    10.0   1_565     S
V12     V2    10.0   1_655     S
V12     V16    10.0   1_565     S
V12     V27    10.0   .     S
V12     V28    10.0   .     S
V13     V2    10.0   1_545     S
V13     V7    10.0   1_455     S
V13     V1    10.0   1_545     S
V13     V9    10.0   1_545     S
V13     V30    10.0   .     S
V13     V29    10.0   .     S
V14     V1    10.0   1_546     S
V14     V8    10.0   1_455     S
V14     V2    10.0   1_545     S
V14     V10    10.0   1_545     S
V14     V29    10.0   1_556     S
V14     V30    10.0   .     S
V15     V4    10.0   1_545     S
V15     V3    10.0   1_545     S
V15     V11    10.0   1_545     S
V15     V32    10.0   .     S
V15     V31    10.0   .     S
V16     V3    10.0   1_546     S
V16     V4    10.0   1_545     S
V16     V12    10.0   1_545     S
V16     V31    10.0   1_556     S
V16     V32    10.0   .     S
V17     V29    10.0   .     S
V17     V30    10.0   .     S
V17     V25    10.0   .     S
V17     V23    10.0   1_455     S
V17     V27    10.0   1_455     S
V18     V30    10.0   .     S
V18     V29    10.0   1_556     S
V18     V26    10.0   .     S
V18     V24    10.0   1_455     S
V18     V28    10.0   1_455     S
V18     V1    10.0   1_556     S
V19     V31    10.0   .     S
V19     V32    10.0   .     S
V19     V27    10.0   .     S
V19     V21    10.0   .     S
V19     V25    10.0   .     S
V20     V32    10.0   .     S
V20     V31    10.0   1_556     S
V20     V28    10.0   .     S
V20     V22    10.0   .     S
V20     V26    10.0   .     S
V20     V3    10.0   1_556     S
V21     V31    10.0   .     S
V21     V26    10.0   1_554     S
V21     V29    10.0   .     S
V21     V25    10.0   .     S
V21     V6    10.0   1_554     S
V22     V32    10.0   .     S
V22     V25    10.0   .     S
V22     V30    10.0   .     S
V22     V26    10.0   .     S
V23     V29    10.0   1_655     S
V23     V28    10.0   1_554     S
V23     V31    10.0   .     S
V23     V17    10.0   1_655     S
V23     V27    10.0   .     S
V23     V8    10.0   1_554     S
V24     V30    10.0   1_655     S
V24     V27    10.0   .     S
V24     V32    10.0   .     S
V24     V18    10.0   1_655     S
V24     V28    10.0   .     S
V25     V30    10.0   .     S
V26     V21    10.0   1_556     S
V26     V29    10.0   1_556     S
V26     V9    10.0   1_556     S
V27     V17    10.0   1_655     S
V27     V32    10.0   .     S
V28     V23    10.0   1_556     S
V28     V18    10.0   1_655     S
V28     V31    10.0   1_556     S
V28     V11    10.0   1_556     S
V29     V23    10.0   1_455     S
V29     V18    10.0   1_554     S
V29     V26    10.0   1_554     S
V29     V14    10.0   1_554     S
V30     V24    10.0   1_455     S
V31     V20    10.0   1_554     S
V31     V28    10.0   1_554     S
V31     V16    10.0   1_554     S
