data_vck
_audit_creation_date              2019-12-31
_audit_creation_method            'Pymatgen'
_symmetry_space_group_name_H-M    'P1'
_symmetry_Int_Tables_number       1
loop_
_symmetry_equiv_pos_as_xyz
  x,y,z
_cell_length_a                    53.5036
_cell_length_b                    26.9504
_cell_length_c                    30.0
_cell_angle_alpha                 90.0
_cell_angle_beta                 90.0
_cell_angle_gamma                 90.0
loop_
_atom_site_label
_atom_site_type_symbol
_atom_site_fract_x
_atom_site_fract_y
_atom_site_fract_z
V1     V     0.44   0.3578   0.1667
V2     V     0.44   0.3578   0.5
V3     V     0.44   0.3578   0.8333
V4     V     0.31   0.1078   0.25
V5     V     0.31   0.1078   0.5833
V6     V     0.31   0.1078   0.9167
V7     V     0.44   0.8578   0.0
V8     V     0.44   0.8578   0.3333
V9     V     0.44   0.8578   0.6667
V10     V     0.31   0.6078   0.0833
V11     V     0.31   0.6078   0.4167
V12     V     0.31   0.6078   0.75
V13     V     0.56   0.6422   0.1667
V14     V     0.56   0.6422   0.5
V15     V     0.56   0.6422   0.8333
V16     V     0.69   0.3922   0.0833
V17     V     0.69   0.3922   0.4167
V18     V     0.69   0.3922   0.75
V19     V     0.56   0.1422   0.0
V20     V     0.56   0.1422   0.3333
V21     V     0.56   0.1422   0.6667
V22     V     0.69   0.8922   0.25
V23     V     0.69   0.8922   0.5833
V24     V     0.69   0.8922   0.9167
V25     V     0.94   0.3578   0.0
V26     V     0.94   0.3578   0.3333
V27     V     0.94   0.3578   0.6667
V28     V     0.81   0.6078   0.25
V29     V     0.81   0.6078   0.5833
V30     V     0.81   0.6078   0.9167
V31     V     0.94   0.8578   0.1667
V32     V     0.94   0.8578   0.5
V33     V     0.94   0.8578   0.8333
V34     V     0.81   0.1078   0.0833
V35     V     0.81   0.1078   0.4167
V36     V     0.81   0.1078   0.75
V37     V     0.19   0.8922   0.0833
V38     V     0.19   0.8922   0.4167
V39     V     0.19   0.8922   0.75
V40     V     0.19   0.3922   0.25
V41     V     0.19   0.3922   0.5833
V42     V     0.19   0.3922   0.9167
V43     V     0.06   0.6422   0.0
V44     V     0.06   0.6422   0.3333
V45     V     0.06   0.6422   0.6667
V46     V     0.06   0.1422   0.1667
V47     V     0.06   0.1422   0.5
V48     V     0.06   0.1422   0.8333
loop_
_geom_bond_atom_site_label_1
_geom_bond_atom_site_label_2
_geom_bond_distance
_geom_bond_site_symmetry_2
_ccdc_geom_bond_type
V1     V4    10.0   .     S
V1     V10    10.0   .     S
V1     V3    10.0   1_554     S
V1     V2    10.0   .     S
V1     V19    10.0   .     S
V1     V20    10.0   .     S
V1     V13    10.0   .     S
V2     V5    10.0   .     S
V2     V11    10.0   .     S
V2     V3    10.0   .     S
V2     V20    10.0   .     S
V2     V21    10.0   .     S
V2     V14    10.0   .     S
V3     V6    10.0   .     S
V3     V12    10.0   .     S
V3     V1    10.0   1_556     S
V3     V21    10.0   .     S
V3     V19    10.0   1_556     S
V3     V15    10.0   .     S
V4     V38    10.0   1_545     S
V4     V37    10.0   1_545     S
V4     V8    10.0   1_545     S
V4     V6    10.0   1_554     S
V4     V5    10.0   .     S
V4     V40    10.0   .     S
V5     V39    10.0   1_545     S
V5     V38    10.0   1_545     S
V5     V9    10.0   1_545     S
V5     V6    10.0   .     S
V5     V41    10.0   .     S
V6     V37    10.0   1_546     S
V6     V39    10.0   1_545     S
V6     V7    10.0   1_546     S
V6     V4    10.0   1_556     S
V6     V42    10.0   .     S
V7     V13    10.0   .     S
V7     V15    10.0   1_554     S
V7     V6    10.0   1_564     S
V7     V10    10.0   .     S
V7     V8    10.0   .     S
V7     V9    10.0   1_554     S
V7     V19    10.0   1_565     S
V8     V14    10.0   .     S
V8     V13    10.0   .     S
V8     V4    10.0   1_565     S
V8     V11    10.0   .     S
V8     V9    10.0   .     S
V8     V20    10.0   1_565     S
V9     V15    10.0   .     S
V9     V14    10.0   .     S
V9     V5    10.0   1_565     S
V9     V12    10.0   .     S
V9     V7    10.0   1_556     S
V9     V21    10.0   1_565     S
V10     V11    10.0   .     S
V10     V12    10.0   1_554     S
V10     V40    10.0   .     S
V10     V42    10.0   1_554     S
V10     V37    10.0   .     S
V11     V12    10.0   .     S
V11     V41    10.0   .     S
V11     V40    10.0   .     S
V11     V38    10.0   .     S
V12     V10    10.0   1_556     S
V12     V42    10.0   .     S
V12     V41    10.0   .     S
V12     V39    10.0   .     S
V13     V16    10.0   .     S
V13     V22    10.0   .     S
V13     V15    10.0   1_554     S
V13     V14    10.0   .     S
V14     V17    10.0   .     S
V14     V23    10.0   .     S
V14     V15    10.0   .     S
V15     V7    10.0   1_556     S
V15     V18    10.0   .     S
V15     V24    10.0   .     S
V15     V13    10.0   1_556     S
V16     V28    10.0   .     S
V16     V30    10.0   1_554     S
V16     V19    10.0   .     S
V16     V17    10.0   .     S
V16     V18    10.0   1_554     S
V16     V34    10.0   .     S
V17     V29    10.0   .     S
V17     V28    10.0   .     S
V17     V20    10.0   .     S
V17     V18    10.0   .     S
V17     V35    10.0   .     S
V18     V30    10.0   .     S
V18     V29    10.0   .     S
V18     V21    10.0   .     S
V18     V16    10.0   1_556     S
V18     V36    10.0   .     S
V19     V24    10.0   1_544     S
V19     V20    10.0   .     S
V19     V21    10.0   1_554     S
V19     V3    10.0   1_554     S
V19     V7    10.0   1_545     S
V20     V22    10.0   1_545     S
V20     V21    10.0   .     S
V20     V8    10.0   1_545     S
V21     V23    10.0   1_545     S
V21     V19    10.0   1_556     S
V21     V9    10.0   1_545     S
V22     V35    10.0   1_565     S
V22     V34    10.0   1_565     S
V22     V20    10.0   1_565     S
V22     V24    10.0   1_554     S
V22     V23    10.0   .     S
V22     V28    10.0   .     S
V23     V36    10.0   1_565     S
V23     V35    10.0   1_565     S
V23     V21    10.0   1_565     S
V23     V24    10.0   .     S
V23     V29    10.0   .     S
V24     V34    10.0   1_566     S
V24     V36    10.0   1_565     S
V24     V19    10.0   1_566     S
V24     V22    10.0   1_556     S
V24     V30    10.0   .     S
V25     V34    10.0   .     S
V25     V30    10.0   1_554     S
V25     V26    10.0   .     S
V25     V27    10.0   1_554     S
V25     V48    10.0   1_654     S
V25     V46    10.0   1_655     S
V25     V43    10.0   1_655     S
V26     V35    10.0   .     S
V26     V28    10.0   .     S
V26     V27    10.0   .     S
V26     V46    10.0   1_655     S
V26     V47    10.0   1_655     S
V26     V44    10.0   1_655     S
V27     V36    10.0   .     S
V27     V29    10.0   .     S
V27     V25    10.0   1_556     S
V27     V47    10.0   1_655     S
V27     V48    10.0   1_655     S
V27     V45    10.0   1_655     S
V28     V31    10.0   .     S
V28     V30    10.0   1_554     S
V28     V29    10.0   .     S
V29     V32    10.0   .     S
V29     V30    10.0   .     S
V30     V16    10.0   1_556     S
V30     V33    10.0   .     S
V30     V25    10.0   1_556     S
V30     V28    10.0   1_556     S
V31     V44    10.0   1_655     S
V31     V43    10.0   1_655     S
V31     V34    10.0   1_565     S
V31     V33    10.0   1_554     S
V31     V32    10.0   .     S
V31     V46    10.0   1_665     S
V32     V45    10.0   1_655     S
V32     V44    10.0   1_655     S
V32     V35    10.0   1_565     S
V32     V33    10.0   .     S
V32     V47    10.0   1_665     S
V33     V43    10.0   1_656     S
V33     V45    10.0   1_655     S
V33     V36    10.0   1_565     S
V33     V31    10.0   1_556     S
V33     V48    10.0   1_665     S
V34     V24    10.0   1_544     S
V34     V22    10.0   1_545     S
V34     V31    10.0   1_545     S
V34     V35    10.0   .     S
V34     V36    10.0   1_554     S
V35     V22    10.0   1_545     S
V35     V23    10.0   1_545     S
V35     V32    10.0   1_545     S
V35     V36    10.0   .     S
V36     V23    10.0   1_545     S
V36     V24    10.0   1_545     S
V36     V33    10.0   1_545     S
V36     V34    10.0   1_556     S
V37     V6    10.0   1_564     S
V37     V4    10.0   1_565     S
V37     V43    10.0   .     S
V37     V46    10.0   1_565     S
V37     V38    10.0   .     S
V37     V39    10.0   1_554     S
V38     V4    10.0   1_565     S
V38     V5    10.0   1_565     S
V38     V44    10.0   .     S
V38     V47    10.0   1_565     S
V38     V39    10.0   .     S
V39     V5    10.0   1_565     S
V39     V6    10.0   1_565     S
V39     V45    10.0   .     S
V39     V48    10.0   1_565     S
V39     V37    10.0   1_556     S
V40     V46    10.0   .     S
V40     V44    10.0   .     S
V40     V42    10.0   1_554     S
V40     V41    10.0   .     S
V41     V47    10.0   .     S
V41     V45    10.0   .     S
V41     V42    10.0   .     S
V42     V10    10.0   1_556     S
V42     V48    10.0   .     S
V42     V43    10.0   1_556     S
V42     V40    10.0   1_556     S
V43     V33    10.0   1_454     S
V43     V31    10.0   1_455     S
V43     V42    10.0   1_554     S
V43     V44    10.0   .     S
V43     V45    10.0   1_554     S
V43     V25    10.0   1_455     S
V44     V31    10.0   1_455     S
V44     V32    10.0   1_455     S
V44     V45    10.0   .     S
V44     V26    10.0   1_455     S
V45     V32    10.0   1_455     S
V45     V33    10.0   1_455     S
V45     V43    10.0   1_556     S
V45     V27    10.0   1_455     S
V46     V26    10.0   1_455     S
V46     V25    10.0   1_455     S
V46     V37    10.0   1_545     S
V46     V48    10.0   1_554     S
V46     V47    10.0   .     S
V46     V31    10.0   1_445     S
V47     V27    10.0   1_455     S
V47     V26    10.0   1_455     S
V47     V38    10.0   1_545     S
V47     V48    10.0   .     S
V47     V32    10.0   1_445     S
V48     V25    10.0   1_456     S
V48     V27    10.0   1_455     S
V48     V39    10.0   1_545     S
V48     V46    10.0   1_556     S
V48     V33    10.0   1_445     S
