data_vcl
_audit_creation_date              2019-12-31
_audit_creation_method            'Pymatgen'
_symmetry_space_group_name_H-M    'P1'
_symmetry_Int_Tables_number       1
loop_
_symmetry_equiv_pos_as_xyz
  x,y,z
_cell_length_a                    35.1949
_cell_length_b                    28.5015
_cell_length_c                    32.9218
_cell_angle_alpha                 90.0
_cell_angle_beta                 90.0
_cell_angle_gamma                 90.0
loop_
_atom_site_label
_atom_site_type_symbol
_atom_site_fract_x
_atom_site_fract_y
_atom_site_fract_z
V1     V     0.5443   0.6667   0.375
V2     V     0.5443   0.6667   0.875
V3     V     0.4557   0.3333   0.375
V4     V     0.4557   0.3333   0.875
V5     V     0.4557   0.8333   0.125
V6     V     0.4557   0.8333   0.625
V7     V     0.5443   0.1667   0.125
V8     V     0.5443   0.1667   0.625
V9     V     0.2057   0.9167   0.25
V10     V     0.2057   0.9167   0.75
V11     V     0.2943   0.5833   0.25
V12     V     0.2943   0.5833   0.75
V13     V     0.9557   0.8333   0.375
V14     V     0.9557   0.8333   0.875
V15     V     0.0443   0.1667   0.375
V16     V     0.0443   0.1667   0.875
V17     V     0.7057   0.9167   0.0
V18     V     0.7057   0.9167   0.5
V19     V     0.7943   0.5833   0.0
V20     V     0.7943   0.5833   0.5
V21     V     0.2943   0.0833   0.0
V22     V     0.2943   0.0833   0.5
V23     V     0.2057   0.4167   0.0
V24     V     0.2057   0.4167   0.5
V25     V     0.7943   0.0833   0.25
V26     V     0.7943   0.0833   0.75
V27     V     0.7057   0.4167   0.25
V28     V     0.7057   0.4167   0.75
V29     V     0.0443   0.6667   0.125
V30     V     0.0443   0.6667   0.625
V31     V     0.9557   0.3333   0.125
V32     V     0.9557   0.3333   0.625
loop_
_geom_bond_atom_site_label_1
_geom_bond_atom_site_label_2
_geom_bond_distance
_geom_bond_site_symmetry_2
_ccdc_geom_bond_type
V1     V18    10.0   .     S
V1     V20    10.0   .     S
V1     V11    10.0   .     S
V1     V27    10.0   .     S
V1     V3    10.0   .     S
V1     V6    10.0   .     S
V1     V5    10.0   .     S
V2     V17    10.0   1_556     S
V2     V19    10.0   1_556     S
V2     V12    10.0   .     S
V2     V28    10.0   .     S
V2     V4    10.0   .     S
V2     V5    10.0   1_556     S
V2     V6    10.0   .     S
V3     V22    10.0   .     S
V3     V24    10.0   .     S
V3     V11    10.0   .     S
V3     V27    10.0   .     S
V3     V8    10.0   .     S
V3     V7    10.0   .     S
V4     V21    10.0   1_556     S
V4     V23    10.0   1_556     S
V4     V12    10.0   .     S
V4     V28    10.0   .     S
V4     V7    10.0   1_556     S
V4     V8    10.0   .     S
V5     V11    10.0   .     S
V5     V9    10.0   .     S
V5     V21    10.0   1_565     S
V5     V17    10.0   .     S
V5     V7    10.0   1_565     S
V5     V2    10.0   1_554     S
V6     V12    10.0   .     S
V6     V10    10.0   .     S
V6     V22    10.0   1_565     S
V6     V18    10.0   .     S
V6     V8    10.0   1_565     S
V7     V21    10.0   .     S
V7     V17    10.0   1_545     S
V7     V27    10.0   .     S
V7     V25    10.0   .     S
V7     V5    10.0   1_545     S
V7     V4    10.0   1_554     S
V8     V22    10.0   .     S
V8     V18    10.0   1_545     S
V8     V28    10.0   .     S
V8     V26    10.0   .     S
V8     V6    10.0   1_545     S
V9     V29    10.0   .     S
V9     V11    10.0   .     S
V9     V15    10.0   1_565     S
V9     V13    10.0   1_455     S
V9     V22    10.0   1_565     S
V9     V21    10.0   1_565     S
V10     V30    10.0   .     S
V10     V12    10.0   .     S
V10     V16    10.0   1_565     S
V10     V14    10.0   1_455     S
V10     V21    10.0   1_566     S
V10     V22    10.0   1_565     S
V11     V24    10.0   .     S
V11     V29    10.0   .     S
V11     V23    10.0   .     S
V12     V23    10.0   1_556     S
V12     V30    10.0   .     S
V12     V24    10.0   .     S
V13     V9    10.0   1_655     S
V13     V25    10.0   1_565     S
V13     V15    10.0   1_665     S
V13     V20    10.0   .     S
V13     V18    10.0   .     S
V13     V29    10.0   1_655     S
V13     V30    10.0   1_655     S
V14     V10    10.0   1_655     S
V14     V26    10.0   1_565     S
V14     V16    10.0   1_665     S
V14     V19    10.0   1_556     S
V14     V17    10.0   1_556     S
V14     V30    10.0   1_655     S
V14     V29    10.0   1_656     S
V15     V9    10.0   1_545     S
V15     V24    10.0   .     S
V15     V22    10.0   .     S
V15     V25    10.0   1_455     S
V15     V13    10.0   1_445     S
V15     V31    10.0   1_455     S
V15     V32    10.0   1_455     S
V16     V10    10.0   1_545     S
V16     V23    10.0   1_556     S
V16     V21    10.0   1_556     S
V16     V26    10.0   1_455     S
V16     V14    10.0   1_445     S
V16     V32    10.0   1_455     S
V16     V31    10.0   1_456     S
V17     V2    10.0   1_554     S
V17     V7    10.0   1_565     S
V17     V19    10.0   .     S
V17     V14    10.0   1_554     S
V17     V26    10.0   1_564     S
V17     V25    10.0   1_565     S
V18     V8    10.0   1_565     S
V18     V20    10.0   .     S
V18     V25    10.0   1_565     S
V18     V26    10.0   1_565     S
V19     V2    10.0   1_554     S
V19     V28    10.0   1_554     S
V19     V14    10.0   1_554     S
V19     V31    10.0   .     S
V19     V29    10.0   1_655     S
V19     V27    10.0   .     S
V20     V27    10.0   .     S
V20     V32    10.0   .     S
V20     V30    10.0   1_655     S
V20     V28    10.0   .     S
V21     V4    10.0   1_554     S
V21     V5    10.0   1_545     S
V21     V16    10.0   1_554     S
V21     V23    10.0   .     S
V21     V10    10.0   1_544     S
V21     V9    10.0   1_545     S
V22     V6    10.0   1_545     S
V22     V24    10.0   .     S
V22     V9    10.0   1_545     S
V22     V10    10.0   1_545     S
V23     V4    10.0   1_554     S
V23     V12    10.0   1_554     S
V23     V16    10.0   1_554     S
V23     V29    10.0   .     S
V23     V31    10.0   1_455     S
V24     V30    10.0   .     S
V24     V32    10.0   1_455     S
V25     V13    10.0   1_545     S
V25     V15    10.0   1_655     S
V25     V18    10.0   1_545     S
V25     V27    10.0   .     S
V25     V31    10.0   .     S
V25     V17    10.0   1_545     S
V26     V14    10.0   1_545     S
V26     V16    10.0   1_655     S
V26     V17    10.0   1_546     S
V26     V28    10.0   .     S
V26     V32    10.0   .     S
V26     V18    10.0   1_545     S
V27     V31    10.0   .     S
V28     V19    10.0   1_556     S
V28     V32    10.0   .     S
V29     V19    10.0   1_455     S
V29     V31    10.0   1_455     S
V29     V13    10.0   1_455     S
V29     V14    10.0   1_454     S
V30     V20    10.0   1_455     S
V30     V32    10.0   1_455     S
V30     V14    10.0   1_455     S
V30     V13    10.0   1_455     S
V31     V23    10.0   1_655     S
V31     V29    10.0   1_655     S
V31     V15    10.0   1_655     S
V31     V16    10.0   1_654     S
V32     V24    10.0   1_655     S
V32     V30    10.0   1_655     S
V32     V16    10.0   1_655     S
V32     V15    10.0   1_655     S
