data_vcm
_audit_creation_date              2019-12-31
_audit_creation_method            'Pymatgen'
_symmetry_space_group_name_H-M    'P1'
_symmetry_Int_Tables_number       1
loop_
_symmetry_equiv_pos_as_xyz
  x,y,z
_cell_length_a                    39.3196
_cell_length_b                    39.3194
_cell_length_c                    37.7252
_cell_angle_alpha                 90.0
_cell_angle_beta                 90.0
_cell_angle_gamma                 90.0
loop_
_atom_site_label
_atom_site_type_symbol
_atom_site_fract_x
_atom_site_fract_y
_atom_site_fract_z
V1     V     0.25   0.1673   0.1493
V2     V     0.25   0.1673   0.6493
V3     V     0.25   0.6673   0.1493
V4     V     0.25   0.6673   0.6493
V5     V     0.75   0.1673   0.1493
V6     V     0.75   0.1673   0.6493
V7     V     0.75   0.6673   0.1493
V8     V     0.75   0.6673   0.6493
V9     V     0.25   0.3327   0.3507
V10     V     0.25   0.3327   0.8507
V11     V     0.25   0.8327   0.3507
V12     V     0.25   0.8327   0.8507
V13     V     0.75   0.3327   0.3507
V14     V     0.75   0.3327   0.8507
V15     V     0.75   0.8327   0.3507
V16     V     0.75   0.8327   0.8507
V17     V     0.25   0.0827   0.3993
V18     V     0.25   0.0827   0.8993
V19     V     0.25   0.5827   0.3993
V20     V     0.25   0.5827   0.8993
V21     V     0.75   0.0827   0.3993
V22     V     0.75   0.0827   0.8993
V23     V     0.75   0.5827   0.3993
V24     V     0.75   0.5827   0.8993
V25     V     0.25   0.4173   0.1007
V26     V     0.25   0.4173   0.6007
V27     V     0.25   0.9173   0.1007
V28     V     0.25   0.9173   0.6007
V29     V     0.75   0.4173   0.1007
V30     V     0.75   0.4173   0.6007
V31     V     0.75   0.9173   0.1007
V32     V     0.75   0.9173   0.6007
V33     V     0.0   0.4173   0.1493
V34     V     0.0   0.4173   0.6493
V35     V     0.0   0.9173   0.1493
V36     V     0.0   0.9173   0.6493
V37     V     0.5   0.4173   0.1493
V38     V     0.5   0.4173   0.6493
V39     V     0.5   0.9173   0.1493
V40     V     0.5   0.9173   0.6493
V41     V     0.0   0.0827   0.3507
V42     V     0.0   0.0827   0.8507
V43     V     0.0   0.5827   0.3507
V44     V     0.0   0.5827   0.8507
V45     V     0.5   0.0827   0.3507
V46     V     0.5   0.0827   0.8507
V47     V     0.5   0.5827   0.3507
V48     V     0.5   0.5827   0.8507
V49     V     0.0   0.3327   0.3993
V50     V     0.0   0.3327   0.8993
V51     V     0.0   0.8327   0.3993
V52     V     0.0   0.8327   0.8993
V53     V     0.5   0.3327   0.3993
V54     V     0.5   0.3327   0.8993
V55     V     0.5   0.8327   0.3993
V56     V     0.5   0.8327   0.8993
V57     V     0.0   0.1673   0.1007
V58     V     0.0   0.1673   0.6007
V59     V     0.0   0.6673   0.1007
V60     V     0.0   0.6673   0.6007
V61     V     0.5   0.1673   0.1007
V62     V     0.5   0.1673   0.6007
V63     V     0.5   0.6673   0.1007
V64     V     0.5   0.6673   0.6007
loop_
_geom_bond_atom_site_label_1
_geom_bond_atom_site_label_2
_geom_bond_distance
_geom_bond_site_symmetry_2
_ccdc_geom_bond_type
V1     V25    10.0   .     S
V1     V9    10.0   .     S
V1     V17    10.0   .     S
V1     V27    10.0   1_545     S
V1     V18    10.0   1_554     S
V1     V61    10.0   .     S
V1     V57    10.0   .     S
V2     V26    10.0   .     S
V2     V10    10.0   .     S
V2     V18    10.0   .     S
V2     V28    10.0   1_545     S
V2     V17    10.0   .     S
V2     V62    10.0   .     S
V2     V58    10.0   .     S
V3     V27    10.0   .     S
V3     V11    10.0   .     S
V3     V19    10.0   .     S
V3     V25    10.0   .     S
V3     V20    10.0   1_554     S
V3     V63    10.0   .     S
V3     V59    10.0   .     S
V4     V28    10.0   .     S
V4     V12    10.0   .     S
V4     V20    10.0   .     S
V4     V26    10.0   .     S
V4     V19    10.0   .     S
V4     V64    10.0   .     S
V4     V60    10.0   .     S
V5     V29    10.0   .     S
V5     V13    10.0   .     S
V5     V21    10.0   .     S
V5     V31    10.0   1_545     S
V5     V22    10.0   1_554     S
V5     V57    10.0   1_655     S
V5     V61    10.0   .     S
V6     V30    10.0   .     S
V6     V14    10.0   .     S
V6     V22    10.0   .     S
V6     V32    10.0   1_545     S
V6     V21    10.0   .     S
V6     V58    10.0   1_655     S
V6     V62    10.0   .     S
V7     V31    10.0   .     S
V7     V15    10.0   .     S
V7     V23    10.0   .     S
V7     V29    10.0   .     S
V7     V24    10.0   1_554     S
V7     V59    10.0   1_655     S
V7     V63    10.0   .     S
V8     V32    10.0   .     S
V8     V16    10.0   .     S
V8     V24    10.0   .     S
V8     V30    10.0   .     S
V8     V23    10.0   .     S
V8     V60    10.0   1_655     S
V8     V64    10.0   .     S
V9     V19    10.0   .     S
V9     V26    10.0   .     S
V9     V25    10.0   .     S
V9     V17    10.0   .     S
V9     V53    10.0   .     S
V9     V49    10.0   .     S
V10     V20    10.0   .     S
V10     V25    10.0   1_556     S
V10     V26    10.0   .     S
V10     V18    10.0   .     S
V10     V54    10.0   .     S
V10     V50    10.0   .     S
V11     V17    10.0   1_565     S
V11     V28    10.0   .     S
V11     V27    10.0   .     S
V11     V19    10.0   .     S
V11     V55    10.0   .     S
V11     V51    10.0   .     S
V12     V18    10.0   1_565     S
V12     V27    10.0   1_556     S
V12     V28    10.0   .     S
V12     V20    10.0   .     S
V12     V56    10.0   .     S
V12     V52    10.0   .     S
V13     V23    10.0   .     S
V13     V30    10.0   .     S
V13     V29    10.0   .     S
V13     V21    10.0   .     S
V13     V49    10.0   1_655     S
V13     V53    10.0   .     S
V14     V24    10.0   .     S
V14     V29    10.0   1_556     S
V14     V30    10.0   .     S
V14     V22    10.0   .     S
V14     V50    10.0   1_655     S
V14     V54    10.0   .     S
V15     V21    10.0   1_565     S
V15     V32    10.0   .     S
V15     V31    10.0   .     S
V15     V23    10.0   .     S
V15     V51    10.0   1_655     S
V15     V55    10.0   .     S
V16     V22    10.0   1_565     S
V16     V31    10.0   1_556     S
V16     V32    10.0   .     S
V16     V24    10.0   .     S
V16     V52    10.0   1_655     S
V16     V56    10.0   .     S
V17     V11    10.0   1_545     S
V17     V28    10.0   1_545     S
V17     V45    10.0   .     S
V17     V41    10.0   .     S
V18     V12    10.0   1_545     S
V18     V27    10.0   1_546     S
V18     V1    10.0   1_556     S
V18     V46    10.0   .     S
V18     V42    10.0   .     S
V19     V26    10.0   .     S
V19     V47    10.0   .     S
V19     V43    10.0   .     S
V20     V25    10.0   1_556     S
V20     V3    10.0   1_556     S
V20     V48    10.0   .     S
V20     V44    10.0   .     S
V21     V15    10.0   1_545     S
V21     V32    10.0   1_545     S
V21     V41    10.0   1_655     S
V21     V45    10.0   .     S
V22     V16    10.0   1_545     S
V22     V31    10.0   1_546     S
V22     V5    10.0   1_556     S
V22     V42    10.0   1_655     S
V22     V46    10.0   .     S
V23     V30    10.0   .     S
V23     V43    10.0   1_655     S
V23     V47    10.0   .     S
V24     V29    10.0   1_556     S
V24     V7    10.0   1_556     S
V24     V44    10.0   1_655     S
V24     V48    10.0   .     S
V25     V10    10.0   1_554     S
V25     V20    10.0   1_554     S
V25     V37    10.0   .     S
V25     V33    10.0   .     S
V26     V38    10.0   .     S
V26     V34    10.0   .     S
V27     V12    10.0   1_554     S
V27     V18    10.0   1_564     S
V27     V1    10.0   1_565     S
V27     V39    10.0   .     S
V27     V35    10.0   .     S
V28     V17    10.0   1_565     S
V28     V2    10.0   1_565     S
V28     V40    10.0   .     S
V28     V36    10.0   .     S
V29     V14    10.0   1_554     S
V29     V24    10.0   1_554     S
V29     V33    10.0   1_655     S
V29     V37    10.0   .     S
V30     V34    10.0   1_655     S
V30     V38    10.0   .     S
V31     V16    10.0   1_554     S
V31     V22    10.0   1_564     S
V31     V5    10.0   1_565     S
V31     V35    10.0   1_655     S
V31     V39    10.0   .     S
V32     V21    10.0   1_565     S
V32     V6    10.0   1_565     S
V32     V36    10.0   1_655     S
V32     V40    10.0   .     S
V33     V29    10.0   1_455     S
V33     V49    10.0   .     S
V33     V43    10.0   .     S
V33     V59    10.0   .     S
V33     V57    10.0   .     S
V33     V50    10.0   1_554     S
V34     V30    10.0   1_455     S
V34     V50    10.0   .     S
V34     V44    10.0   .     S
V34     V60    10.0   .     S
V34     V58    10.0   .     S
V34     V49    10.0   .     S
V35     V31    10.0   1_455     S
V35     V51    10.0   .     S
V35     V41    10.0   1_565     S
V35     V57    10.0   1_565     S
V35     V59    10.0   .     S
V35     V52    10.0   1_554     S
V36     V32    10.0   1_455     S
V36     V52    10.0   .     S
V36     V42    10.0   1_565     S
V36     V58    10.0   1_565     S
V36     V60    10.0   .     S
V36     V51    10.0   .     S
V37     V53    10.0   .     S
V37     V47    10.0   .     S
V37     V63    10.0   .     S
V37     V61    10.0   .     S
V37     V54    10.0   1_554     S
V38     V54    10.0   .     S
V38     V48    10.0   .     S
V38     V64    10.0   .     S
V38     V62    10.0   .     S
V38     V53    10.0   .     S
V39     V55    10.0   .     S
V39     V45    10.0   1_565     S
V39     V61    10.0   1_565     S
V39     V63    10.0   .     S
V39     V56    10.0   1_554     S
V40     V56    10.0   .     S
V40     V46    10.0   1_565     S
V40     V62    10.0   1_565     S
V40     V64    10.0   .     S
V40     V55    10.0   .     S
V41     V21    10.0   1_455     S
V41     V51    10.0   1_545     S
V41     V49    10.0   .     S
V41     V58    10.0   .     S
V41     V35    10.0   1_545     S
V41     V57    10.0   .     S
V42     V22    10.0   1_455     S
V42     V52    10.0   1_545     S
V42     V50    10.0   .     S
V42     V57    10.0   1_556     S
V42     V36    10.0   1_545     S
V42     V58    10.0   .     S
V43     V23    10.0   1_455     S
V43     V49    10.0   .     S
V43     V51    10.0   .     S
V43     V60    10.0   .     S
V43     V59    10.0   .     S
V44     V24    10.0   1_455     S
V44     V50    10.0   .     S
V44     V52    10.0   .     S
V44     V59    10.0   1_556     S
V44     V60    10.0   .     S
V45     V55    10.0   1_545     S
V45     V53    10.0   .     S
V45     V62    10.0   .     S
V45     V39    10.0   1_545     S
V45     V61    10.0   .     S
V46     V56    10.0   1_545     S
V46     V54    10.0   .     S
V46     V61    10.0   1_556     S
V46     V40    10.0   1_545     S
V46     V62    10.0   .     S
V47     V53    10.0   .     S
V47     V55    10.0   .     S
V47     V64    10.0   .     S
V47     V63    10.0   .     S
V48     V54    10.0   .     S
V48     V56    10.0   .     S
V48     V63    10.0   1_556     S
V48     V64    10.0   .     S
V49     V13    10.0   1_455     S
V49     V58    10.0   .     S
V50     V14    10.0   1_455     S
V50     V57    10.0   1_556     S
V50     V33    10.0   1_556     S
V51     V15    10.0   1_455     S
V51     V41    10.0   1_565     S
V51     V60    10.0   .     S
V52     V16    10.0   1_455     S
V52     V42    10.0   1_565     S
V52     V59    10.0   1_556     S
V52     V35    10.0   1_556     S
V53     V62    10.0   .     S
V54     V61    10.0   1_556     S
V54     V37    10.0   1_556     S
V55     V45    10.0   1_565     S
V55     V64    10.0   .     S
V56     V46    10.0   1_565     S
V56     V63    10.0   1_556     S
V56     V39    10.0   1_556     S
V57     V5    10.0   1_455     S
V57     V42    10.0   1_554     S
V57     V35    10.0   1_545     S
V57     V50    10.0   1_554     S
V58     V6    10.0   1_455     S
V58     V36    10.0   1_545     S
V59     V7    10.0   1_455     S
V59     V44    10.0   1_554     S
V59     V52    10.0   1_554     S
V60     V8    10.0   1_455     S
V61     V46    10.0   1_554     S
V61     V39    10.0   1_545     S
V61     V54    10.0   1_554     S
V62     V40    10.0   1_545     S
V63     V48    10.0   1_554     S
V63     V56    10.0   1_554     S
