data_vcn
_audit_creation_date              2019-12-31
_audit_creation_method            'Pymatgen'
_symmetry_space_group_name_H-M    'P1'
_symmetry_Int_Tables_number       1
loop_
_symmetry_equiv_pos_as_xyz
  x,y,z
_cell_length_a                    39.363
_cell_length_b                    36.2536
_cell_length_c                    30.0
_cell_angle_alpha                 90.0
_cell_angle_beta                 90.0
_cell_angle_gamma                 90.0
loop_
_atom_site_label
_atom_site_type_symbol
_atom_site_fract_x
_atom_site_fract_y
_atom_site_fract_z
V1     V     0.25   0.8694   0.0537
V2     V     0.25   0.8694   0.387
V3     V     0.25   0.8694   0.7204
V4     V     0.75   0.8694   0.0537
V5     V     0.75   0.8694   0.387
V6     V     0.75   0.8694   0.7204
V7     V     0.25   0.1306   0.2796
V8     V     0.25   0.1306   0.613
V9     V     0.25   0.1306   0.9463
V10     V     0.75   0.1306   0.2796
V11     V     0.75   0.1306   0.613
V12     V     0.75   0.1306   0.9463
V13     V     0.25   0.6306   0.2204
V14     V     0.25   0.6306   0.5537
V15     V     0.25   0.6306   0.887
V16     V     0.75   0.6306   0.2204
V17     V     0.75   0.6306   0.5537
V18     V     0.75   0.6306   0.887
V19     V     0.25   0.3694   0.113
V20     V     0.25   0.3694   0.4463
V21     V     0.25   0.3694   0.7796
V22     V     0.75   0.3694   0.113
V23     V     0.75   0.3694   0.4463
V24     V     0.75   0.3694   0.7796
V25     V     0.0   0.8694   0.113
V26     V     0.0   0.8694   0.4463
V27     V     0.0   0.8694   0.7796
V28     V     0.5   0.8694   0.113
V29     V     0.5   0.8694   0.4463
V30     V     0.5   0.8694   0.7796
V31     V     0.0   0.1306   0.2204
V32     V     0.0   0.1306   0.5537
V33     V     0.0   0.1306   0.887
V34     V     0.5   0.1306   0.2204
V35     V     0.5   0.1306   0.5537
V36     V     0.5   0.1306   0.887
V37     V     0.0   0.6306   0.2796
V38     V     0.0   0.6306   0.613
V39     V     0.0   0.6306   0.9463
V40     V     0.5   0.6306   0.2796
V41     V     0.5   0.6306   0.613
V42     V     0.5   0.6306   0.9463
V43     V     0.0   0.3694   0.0537
V44     V     0.0   0.3694   0.387
V45     V     0.0   0.3694   0.7204
V46     V     0.5   0.3694   0.0537
V47     V     0.5   0.3694   0.387
V48     V     0.5   0.3694   0.7204
loop_
_geom_bond_atom_site_label_1
_geom_bond_atom_site_label_2
_geom_bond_distance
_geom_bond_site_symmetry_2
_ccdc_geom_bond_type
V1     V9    10.0   1_564     S
V1     V2    10.0   .     S
V1     V3    10.0   1_554     S
V1     V13    10.0   .     S
V1     V15    10.0   1_554     S
V1     V28    10.0   .     S
V1     V25    10.0   .     S
V2     V7    10.0   1_565     S
V2     V3    10.0   .     S
V2     V14    10.0   .     S
V2     V13    10.0   .     S
V2     V29    10.0   .     S
V2     V26    10.0   .     S
V3     V8    10.0   1_565     S
V3     V1    10.0   1_556     S
V3     V15    10.0   .     S
V3     V14    10.0   .     S
V3     V30    10.0   .     S
V3     V27    10.0   .     S
V4     V12    10.0   1_564     S
V4     V5    10.0   .     S
V4     V6    10.0   1_554     S
V4     V16    10.0   .     S
V4     V18    10.0   1_554     S
V4     V25    10.0   1_655     S
V4     V28    10.0   .     S
V5     V10    10.0   1_565     S
V5     V6    10.0   .     S
V5     V17    10.0   .     S
V5     V16    10.0   .     S
V5     V26    10.0   1_655     S
V5     V29    10.0   .     S
V6     V11    10.0   1_565     S
V6     V4    10.0   1_556     S
V6     V18    10.0   .     S
V6     V17    10.0   .     S
V6     V27    10.0   1_655     S
V6     V30    10.0   .     S
V7     V2    10.0   1_545     S
V7     V9    10.0   1_554     S
V7     V8    10.0   .     S
V7     V19    10.0   .     S
V7     V20    10.0   .     S
V7     V34    10.0   .     S
V7     V31    10.0   .     S
V8     V3    10.0   1_545     S
V8     V9    10.0   .     S
V8     V20    10.0   .     S
V8     V21    10.0   .     S
V8     V35    10.0   .     S
V8     V32    10.0   .     S
V9     V1    10.0   1_546     S
V9     V7    10.0   1_556     S
V9     V21    10.0   .     S
V9     V19    10.0   1_556     S
V9     V36    10.0   .     S
V9     V33    10.0   .     S
V10     V5    10.0   1_545     S
V10     V12    10.0   1_554     S
V10     V11    10.0   .     S
V10     V22    10.0   .     S
V10     V23    10.0   .     S
V10     V31    10.0   1_655     S
V10     V34    10.0   .     S
V11     V6    10.0   1_545     S
V11     V12    10.0   .     S
V11     V23    10.0   .     S
V11     V24    10.0   .     S
V11     V32    10.0   1_655     S
V11     V35    10.0   .     S
V12     V4    10.0   1_546     S
V12     V10    10.0   1_556     S
V12     V24    10.0   .     S
V12     V22    10.0   1_556     S
V12     V33    10.0   1_655     S
V12     V36    10.0   .     S
V13     V19    10.0   .     S
V13     V15    10.0   1_554     S
V13     V14    10.0   .     S
V13     V37    10.0   .     S
V13     V40    10.0   .     S
V14     V20    10.0   .     S
V14     V15    10.0   .     S
V14     V38    10.0   .     S
V14     V41    10.0   .     S
V15     V21    10.0   .     S
V15     V13    10.0   1_556     S
V15     V1    10.0   1_556     S
V15     V39    10.0   .     S
V15     V42    10.0   .     S
V16     V22    10.0   .     S
V16     V18    10.0   1_554     S
V16     V17    10.0   .     S
V16     V40    10.0   .     S
V16     V37    10.0   1_655     S
V17     V23    10.0   .     S
V17     V18    10.0   .     S
V17     V41    10.0   .     S
V17     V38    10.0   1_655     S
V18     V24    10.0   .     S
V18     V16    10.0   1_556     S
V18     V4    10.0   1_556     S
V18     V42    10.0   .     S
V18     V39    10.0   1_655     S
V19     V9    10.0   1_554     S
V19     V20    10.0   .     S
V19     V21    10.0   1_554     S
V19     V43    10.0   .     S
V19     V46    10.0   .     S
V20     V21    10.0   .     S
V20     V44    10.0   .     S
V20     V47    10.0   .     S
V21     V19    10.0   1_556     S
V21     V45    10.0   .     S
V21     V48    10.0   .     S
V22     V12    10.0   1_554     S
V22     V23    10.0   .     S
V22     V24    10.0   1_554     S
V22     V46    10.0   .     S
V22     V43    10.0   1_655     S
V23     V24    10.0   .     S
V23     V47    10.0   .     S
V23     V44    10.0   1_655     S
V24     V22    10.0   1_556     S
V24     V48    10.0   .     S
V24     V45    10.0   1_655     S
V25     V39    10.0   1_554     S
V25     V37    10.0   .     S
V25     V31    10.0   1_565     S
V25     V26    10.0   .     S
V25     V27    10.0   1_554     S
V25     V4    10.0   1_455     S
V26     V37    10.0   .     S
V26     V38    10.0   .     S
V26     V32    10.0   1_565     S
V26     V27    10.0   .     S
V26     V5    10.0   1_455     S
V27     V38    10.0   .     S
V27     V39    10.0   .     S
V27     V33    10.0   1_565     S
V27     V25    10.0   1_556     S
V27     V6    10.0   1_455     S
V28     V42    10.0   1_554     S
V28     V40    10.0   .     S
V28     V34    10.0   1_565     S
V28     V29    10.0   .     S
V28     V30    10.0   1_554     S
V29     V40    10.0   .     S
V29     V41    10.0   .     S
V29     V35    10.0   1_565     S
V29     V30    10.0   .     S
V30     V41    10.0   .     S
V30     V42    10.0   .     S
V30     V36    10.0   1_565     S
V30     V28    10.0   1_556     S
V31     V25    10.0   1_545     S
V31     V33    10.0   1_554     S
V31     V32    10.0   .     S
V31     V44    10.0   .     S
V31     V43    10.0   .     S
V31     V10    10.0   1_455     S
V32     V26    10.0   1_545     S
V32     V33    10.0   .     S
V32     V45    10.0   .     S
V32     V44    10.0   .     S
V32     V11    10.0   1_455     S
V33     V27    10.0   1_545     S
V33     V31    10.0   1_556     S
V33     V43    10.0   1_556     S
V33     V45    10.0   .     S
V33     V12    10.0   1_455     S
V34     V28    10.0   1_545     S
V34     V36    10.0   1_554     S
V34     V35    10.0   .     S
V34     V47    10.0   .     S
V34     V46    10.0   .     S
V35     V29    10.0   1_545     S
V35     V36    10.0   .     S
V35     V48    10.0   .     S
V35     V47    10.0   .     S
V36     V30    10.0   1_545     S
V36     V34    10.0   1_556     S
V36     V46    10.0   1_556     S
V36     V48    10.0   .     S
V37     V44    10.0   .     S
V37     V39    10.0   1_554     S
V37     V38    10.0   .     S
V37     V16    10.0   1_455     S
V38     V45    10.0   .     S
V38     V39    10.0   .     S
V38     V17    10.0   1_455     S
V39     V25    10.0   1_556     S
V39     V43    10.0   1_556     S
V39     V37    10.0   1_556     S
V39     V18    10.0   1_455     S
V40     V47    10.0   .     S
V40     V42    10.0   1_554     S
V40     V41    10.0   .     S
V41     V48    10.0   .     S
V41     V42    10.0   .     S
V42     V28    10.0   1_556     S
V42     V46    10.0   1_556     S
V42     V40    10.0   1_556     S
V43     V39    10.0   1_554     S
V43     V44    10.0   .     S
V43     V45    10.0   1_554     S
V43     V33    10.0   1_554     S
V43     V22    10.0   1_455     S
V44     V45    10.0   .     S
V44     V23    10.0   1_455     S
V45     V43    10.0   1_556     S
V45     V24    10.0   1_455     S
V46     V42    10.0   1_554     S
V46     V47    10.0   .     S
V46     V48    10.0   1_554     S
V46     V36    10.0   1_554     S
V47     V48    10.0   .     S
V48     V46    10.0   1_556     S
