data_vco
_audit_creation_date              2019-12-31
_audit_creation_method            'Pymatgen'
_symmetry_space_group_name_H-M    'P1'
_symmetry_Int_Tables_number       1
loop_
_symmetry_equiv_pos_as_xyz
  x,y,z
_cell_length_a                    32.936
_cell_length_b                    28.4488
_cell_length_c                    35.2448
_cell_angle_alpha                 90.0
_cell_angle_beta                 90.0
_cell_angle_gamma                 90.0
loop_
_atom_site_label
_atom_site_type_symbol
_atom_site_fract_x
_atom_site_fract_y
_atom_site_fract_z
V1     V     0.25   0.6669   0.4555
V2     V     0.25   0.6669   0.9555
V3     V     0.75   0.6669   0.4555
V4     V     0.75   0.6669   0.9555
V5     V     0.0   0.8331   0.0445
V6     V     0.0   0.8331   0.5445
V7     V     0.5   0.8331   0.0445
V8     V     0.5   0.8331   0.5445
V9     V     0.0   0.6669   0.2945
V10     V     0.0   0.6669   0.7945
V11     V     0.5   0.6669   0.2945
V12     V     0.5   0.6669   0.7945
V13     V     0.25   0.8331   0.2055
V14     V     0.25   0.8331   0.7055
V15     V     0.75   0.8331   0.2055
V16     V     0.75   0.8331   0.7055
V17     V     0.0   0.1669   0.4555
V18     V     0.0   0.1669   0.9555
V19     V     0.5   0.1669   0.4555
V20     V     0.5   0.1669   0.9555
V21     V     0.25   0.3331   0.0445
V22     V     0.25   0.3331   0.5445
V23     V     0.75   0.3331   0.0445
V24     V     0.75   0.3331   0.5445
V25     V     0.25   0.1669   0.2945
V26     V     0.25   0.1669   0.7945
V27     V     0.75   0.1669   0.2945
V28     V     0.75   0.1669   0.7945
V29     V     0.0   0.3331   0.2055
V30     V     0.0   0.3331   0.7055
V31     V     0.5   0.3331   0.2055
V32     V     0.5   0.3331   0.7055
loop_
_geom_bond_atom_site_label_1
_geom_bond_atom_site_label_2
_geom_bond_distance
_geom_bond_site_symmetry_2
_ccdc_geom_bond_type
V1     V14    10.0   .     S
V1     V6    10.0   .     S
V1     V8    10.0   .     S
V1     V9    10.0   .     S
V1     V13    10.0   .     S
V1     V11    10.0   .     S
V1     V22    10.0   .     S
V2     V13    10.0   1_556     S
V2     V5    10.0   1_556     S
V2     V7    10.0   1_556     S
V2     V10    10.0   .     S
V2     V14    10.0   .     S
V2     V12    10.0   .     S
V2     V21    10.0   1_556     S
V3     V16    10.0   .     S
V3     V8    10.0   .     S
V3     V6    10.0   1_655     S
V3     V11    10.0   .     S
V3     V15    10.0   .     S
V3     V9    10.0   1_655     S
V3     V24    10.0   .     S
V4     V15    10.0   1_556     S
V4     V7    10.0   1_556     S
V4     V5    10.0   1_656     S
V4     V12    10.0   .     S
V4     V16    10.0   .     S
V4     V10    10.0   1_655     S
V4     V23    10.0   1_556     S
V5     V15    10.0   1_455     S
V5     V13    10.0   .     S
V5     V9    10.0   .     S
V5     V2    10.0   1_554     S
V5     V4    10.0   1_454     S
V5     V10    10.0   1_554     S
V5     V18    10.0   1_564     S
V6     V16    10.0   1_455     S
V6     V14    10.0   .     S
V6     V10    10.0   .     S
V6     V3    10.0   1_455     S
V6     V9    10.0   .     S
V6     V17    10.0   1_565     S
V7     V13    10.0   .     S
V7     V15    10.0   .     S
V7     V11    10.0   .     S
V7     V4    10.0   1_554     S
V7     V2    10.0   1_554     S
V7     V12    10.0   1_554     S
V7     V20    10.0   1_564     S
V8     V14    10.0   .     S
V8     V16    10.0   .     S
V8     V12    10.0   .     S
V8     V11    10.0   .     S
V8     V19    10.0   1_565     S
V9     V3    10.0   1_455     S
V9     V13    10.0   .     S
V9     V15    10.0   1_455     S
V9     V29    10.0   .     S
V10     V4    10.0   1_455     S
V10     V5    10.0   1_556     S
V10     V14    10.0   .     S
V10     V16    10.0   1_455     S
V10     V30    10.0   .     S
V11     V15    10.0   .     S
V11     V13    10.0   .     S
V11     V31    10.0   .     S
V12     V7    10.0   1_556     S
V12     V16    10.0   .     S
V12     V14    10.0   .     S
V12     V32    10.0   .     S
V13     V2    10.0   1_554     S
V13     V25    10.0   1_565     S
V14     V26    10.0   1_565     S
V15     V5    10.0   1_655     S
V15     V4    10.0   1_554     S
V15     V9    10.0   1_655     S
V15     V27    10.0   1_565     S
V16     V6    10.0   1_655     S
V16     V10    10.0   1_655     S
V16     V28    10.0   1_565     S
V17     V30    10.0   .     S
V17     V22    10.0   .     S
V17     V24    10.0   1_455     S
V17     V27    10.0   1_455     S
V17     V25    10.0   .     S
V17     V29    10.0   .     S
V17     V6    10.0   1_545     S
V18     V29    10.0   1_556     S
V18     V21    10.0   1_556     S
V18     V23    10.0   1_456     S
V18     V28    10.0   1_455     S
V18     V26    10.0   .     S
V18     V30    10.0   .     S
V18     V5    10.0   1_546     S
V19     V32    10.0   .     S
V19     V24    10.0   .     S
V19     V22    10.0   .     S
V19     V25    10.0   .     S
V19     V27    10.0   .     S
V19     V31    10.0   .     S
V19     V8    10.0   1_545     S
V20     V31    10.0   1_556     S
V20     V23    10.0   1_556     S
V20     V21    10.0   1_556     S
V20     V26    10.0   .     S
V20     V28    10.0   .     S
V20     V32    10.0   .     S
V20     V7    10.0   1_546     S
V21     V31    10.0   .     S
V21     V25    10.0   .     S
V21     V29    10.0   .     S
V21     V18    10.0   1_554     S
V21     V20    10.0   1_554     S
V21     V26    10.0   1_554     S
V21     V2    10.0   1_554     S
V22     V32    10.0   .     S
V22     V26    10.0   .     S
V22     V30    10.0   .     S
V22     V25    10.0   .     S
V23     V29    10.0   1_655     S
V23     V27    10.0   .     S
V23     V31    10.0   .     S
V23     V20    10.0   1_554     S
V23     V18    10.0   1_654     S
V23     V28    10.0   1_554     S
V23     V4    10.0   1_554     S
V24     V30    10.0   1_655     S
V24     V28    10.0   .     S
V24     V32    10.0   .     S
V24     V17    10.0   1_655     S
V24     V27    10.0   .     S
V25     V29    10.0   .     S
V25     V31    10.0   .     S
V25     V13    10.0   1_545     S
V26     V21    10.0   1_556     S
V26     V30    10.0   .     S
V26     V32    10.0   .     S
V26     V14    10.0   1_545     S
V27     V17    10.0   1_655     S
V27     V31    10.0   .     S
V27     V29    10.0   1_655     S
V27     V15    10.0   1_545     S
V28     V18    10.0   1_655     S
V28     V23    10.0   1_556     S
V28     V32    10.0   .     S
V28     V30    10.0   1_655     S
V28     V16    10.0   1_545     S
V29     V23    10.0   1_455     S
V29     V18    10.0   1_554     S
V29     V27    10.0   1_455     S
V30     V24    10.0   1_455     S
V30     V28    10.0   1_455     S
V31     V20    10.0   1_554     S
