data_vcp
_audit_creation_date              2019-12-31
_audit_creation_method            'Pymatgen'
_symmetry_space_group_name_H-M    'P1'
_symmetry_Int_Tables_number       1
loop_
_symmetry_equiv_pos_as_xyz
  x,y,z
_cell_length_a                    38.0839
_cell_length_b                    38.2266
_cell_length_c                    38.9942
_cell_angle_alpha                 90.0
_cell_angle_beta                 90.0
_cell_angle_gamma                 90.0
loop_
_atom_site_label
_atom_site_type_symbol
_atom_site_fract_x
_atom_site_fract_y
_atom_site_fract_z
V1     V     0.878   0.4709   0.2878
V2     V     0.878   0.4709   0.7878
V3     V     0.878   0.9709   0.2878
V4     V     0.878   0.9709   0.7878
V5     V     0.878   0.2791   0.4622
V6     V     0.878   0.2791   0.9622
V7     V     0.878   0.7791   0.4622
V8     V     0.878   0.7791   0.9622
V9     V     0.878   0.2209   0.2122
V10     V     0.878   0.2209   0.7122
V11     V     0.878   0.7209   0.2122
V12     V     0.878   0.7209   0.7122
V13     V     0.878   0.0291   0.0378
V14     V     0.878   0.0291   0.5378
V15     V     0.878   0.5291   0.0378
V16     V     0.878   0.5291   0.5378
V17     V     0.122   0.4709   0.4622
V18     V     0.122   0.4709   0.9622
V19     V     0.122   0.9709   0.4622
V20     V     0.122   0.9709   0.9622
V21     V     0.122   0.2791   0.2878
V22     V     0.122   0.2791   0.7878
V23     V     0.122   0.7791   0.2878
V24     V     0.122   0.7791   0.7878
V25     V     0.122   0.2209   0.0378
V26     V     0.122   0.2209   0.5378
V27     V     0.122   0.7209   0.0378
V28     V     0.122   0.7209   0.5378
V29     V     0.122   0.0291   0.2122
V30     V     0.122   0.0291   0.7122
V31     V     0.122   0.5291   0.2122
V32     V     0.122   0.5291   0.7122
V33     V     0.622   0.0291   0.2878
V34     V     0.622   0.0291   0.7878
V35     V     0.622   0.5291   0.2878
V36     V     0.622   0.5291   0.7878
V37     V     0.622   0.2209   0.4622
V38     V     0.622   0.2209   0.9622
V39     V     0.622   0.7209   0.4622
V40     V     0.622   0.7209   0.9622
V41     V     0.622   0.4709   0.0378
V42     V     0.622   0.4709   0.5378
V43     V     0.622   0.9709   0.0378
V44     V     0.622   0.9709   0.5378
V45     V     0.622   0.2791   0.2122
V46     V     0.622   0.2791   0.7122
V47     V     0.622   0.7791   0.2122
V48     V     0.622   0.7791   0.7122
V49     V     0.378   0.2209   0.2878
V50     V     0.378   0.2209   0.7878
V51     V     0.378   0.7209   0.2878
V52     V     0.378   0.7209   0.7878
V53     V     0.378   0.0291   0.4622
V54     V     0.378   0.0291   0.9622
V55     V     0.378   0.5291   0.4622
V56     V     0.378   0.5291   0.9622
V57     V     0.378   0.4709   0.2122
V58     V     0.378   0.4709   0.7122
V59     V     0.378   0.9709   0.2122
V60     V     0.378   0.9709   0.7122
V61     V     0.378   0.2791   0.0378
V62     V     0.378   0.2791   0.5378
V63     V     0.378   0.7791   0.0378
V64     V     0.378   0.7791   0.5378
loop_
_geom_bond_atom_site_label_1
_geom_bond_atom_site_label_2
_geom_bond_distance
_geom_bond_site_symmetry_2
_ccdc_geom_bond_type
V1     V16    10.0   .     S
V1     V5    10.0   .     S
V1     V9    10.0   .     S
V1     V11    10.0   .     S
V1     V15    10.0   .     S
V1     V31    10.0   1_655     S
V1     V35    10.0   .     S
V2     V15    10.0   1_556     S
V2     V6    10.0   .     S
V2     V10    10.0   .     S
V2     V12    10.0   .     S
V2     V16    10.0   .     S
V2     V32    10.0   1_655     S
V2     V36    10.0   .     S
V3     V14    10.0   1_565     S
V3     V7    10.0   .     S
V3     V11    10.0   .     S
V3     V9    10.0   1_565     S
V3     V13    10.0   1_565     S
V3     V29    10.0   1_665     S
V3     V33    10.0   1_565     S
V4     V13    10.0   1_566     S
V4     V8    10.0   .     S
V4     V12    10.0   .     S
V4     V10    10.0   1_565     S
V4     V14    10.0   1_565     S
V4     V30    10.0   1_665     S
V4     V34    10.0   1_565     S
V5     V14    10.0   .     S
V5     V10    10.0   .     S
V5     V16    10.0   .     S
V5     V9    10.0   .     S
V5     V26    10.0   1_655     S
V5     V37    10.0   .     S
V6     V13    10.0   1_556     S
V6     V9    10.0   1_556     S
V6     V15    10.0   1_556     S
V6     V10    10.0   .     S
V6     V25    10.0   1_656     S
V6     V38    10.0   .     S
V7     V16    10.0   .     S
V7     V12    10.0   .     S
V7     V14    10.0   1_565     S
V7     V11    10.0   .     S
V7     V28    10.0   1_655     S
V7     V39    10.0   .     S
V8     V15    10.0   1_556     S
V8     V11    10.0   1_556     S
V8     V13    10.0   1_566     S
V8     V12    10.0   .     S
V8     V27    10.0   1_656     S
V8     V40    10.0   .     S
V9     V6    10.0   1_554     S
V9     V13    10.0   .     S
V9     V3    10.0   1_545     S
V9     V21    10.0   1_655     S
V9     V45    10.0   .     S
V10     V14    10.0   .     S
V10     V4    10.0   1_545     S
V10     V22    10.0   1_655     S
V10     V46    10.0   .     S
V11     V8    10.0   1_554     S
V11     V15    10.0   .     S
V11     V23    10.0   1_655     S
V11     V47    10.0   .     S
V12     V16    10.0   .     S
V12     V24    10.0   1_655     S
V12     V48    10.0   .     S
V13     V6    10.0   1_554     S
V13     V8    10.0   1_544     S
V13     V4    10.0   1_544     S
V13     V3    10.0   1_545     S
V13     V20    10.0   1_644     S
V13     V43    10.0   1_545     S
V14     V7    10.0   1_545     S
V14     V3    10.0   1_545     S
V14     V4    10.0   1_545     S
V14     V19    10.0   1_645     S
V14     V44    10.0   1_545     S
V15     V8    10.0   1_554     S
V15     V6    10.0   1_554     S
V15     V2    10.0   1_554     S
V15     V18    10.0   1_654     S
V15     V41    10.0   .     S
V16     V17    10.0   1_655     S
V16     V42    10.0   .     S
V17     V28    10.0   .     S
V17     V32    10.0   .     S
V17     V26    10.0   .     S
V17     V21    10.0   .     S
V17     V31    10.0   .     S
V17     V16    10.0   1_455     S
V17     V55    10.0   .     S
V18     V27    10.0   1_556     S
V18     V31    10.0   1_556     S
V18     V25    10.0   1_556     S
V18     V22    10.0   .     S
V18     V32    10.0   .     S
V18     V15    10.0   1_456     S
V18     V56    10.0   .     S
V19     V26    10.0   1_565     S
V19     V30    10.0   1_565     S
V19     V28    10.0   .     S
V19     V23    10.0   .     S
V19     V29    10.0   1_565     S
V19     V14    10.0   1_465     S
V19     V53    10.0   1_565     S
V20     V25    10.0   1_566     S
V20     V29    10.0   1_566     S
V20     V27    10.0   1_556     S
V20     V24    10.0   .     S
V20     V30    10.0   1_565     S
V20     V13    10.0   1_466     S
V20     V54    10.0   1_565     S
V21     V26    10.0   .     S
V21     V29    10.0   .     S
V21     V25    10.0   .     S
V21     V31    10.0   .     S
V21     V9    10.0   1_455     S
V21     V49    10.0   .     S
V22     V25    10.0   1_556     S
V22     V30    10.0   .     S
V22     V26    10.0   .     S
V22     V32    10.0   .     S
V22     V10    10.0   1_455     S
V22     V50    10.0   .     S
V23     V28    10.0   .     S
V23     V31    10.0   .     S
V23     V27    10.0   .     S
V23     V29    10.0   1_565     S
V23     V11    10.0   1_455     S
V23     V51    10.0   .     S
V24     V27    10.0   1_556     S
V24     V32    10.0   .     S
V24     V28    10.0   .     S
V24     V30    10.0   1_565     S
V24     V12    10.0   1_455     S
V24     V52    10.0   .     S
V25     V20    10.0   1_544     S
V25     V18    10.0   1_554     S
V25     V22    10.0   1_554     S
V25     V29    10.0   .     S
V25     V6    10.0   1_454     S
V25     V61    10.0   .     S
V26     V19    10.0   1_545     S
V26     V30    10.0   .     S
V26     V5    10.0   1_455     S
V26     V62    10.0   .     S
V27     V18    10.0   1_554     S
V27     V20    10.0   1_554     S
V27     V24    10.0   1_554     S
V27     V31    10.0   .     S
V27     V8    10.0   1_454     S
V27     V63    10.0   .     S
V28     V32    10.0   .     S
V28     V7    10.0   1_455     S
V28     V64    10.0   .     S
V29     V20    10.0   1_544     S
V29     V23    10.0   1_545     S
V29     V19    10.0   1_545     S
V29     V3    10.0   1_445     S
V29     V59    10.0   1_545     S
V30     V19    10.0   1_545     S
V30     V24    10.0   1_545     S
V30     V20    10.0   1_545     S
V30     V4    10.0   1_445     S
V30     V60    10.0   1_545     S
V31     V18    10.0   1_554     S
V31     V1    10.0   1_455     S
V31     V57    10.0   .     S
V32     V2    10.0   1_455     S
V32     V58    10.0   .     S
V33     V3    10.0   1_545     S
V33     V44    10.0   1_545     S
V33     V37    10.0   .     S
V33     V45    10.0   .     S
V33     V47    10.0   1_545     S
V33     V43    10.0   1_545     S
V33     V59    10.0   1_545     S
V34     V4    10.0   1_545     S
V34     V43    10.0   1_546     S
V34     V38    10.0   .     S
V34     V46    10.0   .     S
V34     V48    10.0   1_545     S
V34     V44    10.0   1_545     S
V34     V60    10.0   1_545     S
V35     V42    10.0   .     S
V35     V39    10.0   .     S
V35     V47    10.0   .     S
V35     V45    10.0   .     S
V35     V41    10.0   .     S
V35     V57    10.0   .     S
V36     V41    10.0   1_556     S
V36     V40    10.0   .     S
V36     V48    10.0   .     S
V36     V46    10.0   .     S
V36     V42    10.0   .     S
V36     V58    10.0   .     S
V37     V42    10.0   .     S
V37     V46    10.0   .     S
V37     V44    10.0   1_545     S
V37     V45    10.0   .     S
V37     V62    10.0   .     S
V38     V41    10.0   1_556     S
V38     V45    10.0   1_556     S
V38     V43    10.0   1_546     S
V38     V46    10.0   .     S
V38     V61    10.0   1_556     S
V39     V44    10.0   .     S
V39     V48    10.0   .     S
V39     V42    10.0   .     S
V39     V47    10.0   .     S
V39     V64    10.0   .     S
V40     V43    10.0   1_556     S
V40     V47    10.0   1_556     S
V40     V41    10.0   1_556     S
V40     V48    10.0   .     S
V40     V63    10.0   1_556     S
V41     V38    10.0   1_554     S
V41     V40    10.0   1_554     S
V41     V36    10.0   1_554     S
V41     V45    10.0   .     S
V41     V56    10.0   1_554     S
V42     V46    10.0   .     S
V42     V55    10.0   .     S
V43     V13    10.0   1_565     S
V43     V40    10.0   1_554     S
V43     V38    10.0   1_564     S
V43     V34    10.0   1_564     S
V43     V47    10.0   .     S
V43     V33    10.0   1_565     S
V43     V54    10.0   1_564     S
V44     V14    10.0   1_565     S
V44     V37    10.0   1_565     S
V44     V33    10.0   1_565     S
V44     V48    10.0   .     S
V44     V34    10.0   1_565     S
V44     V53    10.0   1_565     S
V45     V38    10.0   1_554     S
V45     V49    10.0   .     S
V46     V50    10.0   .     S
V47     V40    10.0   1_554     S
V47     V33    10.0   1_565     S
V47     V51    10.0   .     S
V48     V34    10.0   1_565     S
V48     V52    10.0   .     S
V49     V62    10.0   .     S
V49     V53    10.0   .     S
V49     V57    10.0   .     S
V49     V61    10.0   .     S
V49     V59    10.0   1_545     S
V50     V61    10.0   1_556     S
V50     V54    10.0   .     S
V50     V58    10.0   .     S
V50     V62    10.0   .     S
V50     V60    10.0   1_545     S
V51     V64    10.0   .     S
V51     V55    10.0   .     S
V51     V59    10.0   .     S
V51     V63    10.0   .     S
V51     V57    10.0   .     S
V52     V63    10.0   1_556     S
V52     V56    10.0   .     S
V52     V60    10.0   .     S
V52     V64    10.0   .     S
V52     V58    10.0   .     S
V53     V64    10.0   1_545     S
V53     V60    10.0   1_545     S
V53     V62    10.0   .     S
V53     V59    10.0   1_545     S
V53     V44    10.0   1_545     S
V53     V19    10.0   1_545     S
V54     V63    10.0   1_546     S
V54     V59    10.0   1_546     S
V54     V61    10.0   1_556     S
V54     V60    10.0   1_545     S
V54     V43    10.0   1_546     S
V54     V20    10.0   1_545     S
V55     V62    10.0   .     S
V55     V58    10.0   .     S
V55     V64    10.0   .     S
V55     V57    10.0   .     S
V56     V61    10.0   1_556     S
V56     V57    10.0   1_556     S
V56     V63    10.0   1_556     S
V56     V58    10.0   .     S
V56     V41    10.0   1_556     S
V57     V56    10.0   1_554     S
V57     V61    10.0   .     S
V58     V62    10.0   .     S
V59     V29    10.0   1_565     S
V59     V54    10.0   1_564     S
V59     V49    10.0   1_565     S
V59     V53    10.0   1_565     S
V59     V63    10.0   .     S
V59     V33    10.0   1_565     S
V60     V30    10.0   1_565     S
V60     V53    10.0   1_565     S
V60     V50    10.0   1_565     S
V60     V54    10.0   1_565     S
V60     V64    10.0   .     S
V60     V34    10.0   1_565     S
V61     V56    10.0   1_554     S
V61     V54    10.0   1_554     S
V61     V50    10.0   1_554     S
V61     V38    10.0   1_554     S
V63     V54    10.0   1_564     S
V63     V56    10.0   1_554     S
V63     V52    10.0   1_554     S
V63     V40    10.0   1_554     S
V64     V53    10.0   1_565     S
