data_vcq
_audit_creation_date              2019-12-31
_audit_creation_method            'Pymatgen'
_symmetry_space_group_name_H-M    'P1'
_symmetry_Int_Tables_number       1
loop_
_symmetry_equiv_pos_as_xyz
  x,y,z
_cell_length_a                    39.5529
_cell_length_b                    39.1062
_cell_length_c                    38.0716
_cell_angle_alpha                 90.0
_cell_angle_beta                 90.0
_cell_angle_gamma                 90.0
loop_
_atom_site_label
_atom_site_type_symbol
_atom_site_fract_x
_atom_site_fract_y
_atom_site_fract_z
V1     V     0.1264   0.4142   0.0974
V2     V     0.1264   0.4142   0.5974
V3     V     0.1264   0.9142   0.0974
V4     V     0.1264   0.9142   0.5974
V5     V     0.8736   0.4142   0.0974
V6     V     0.8736   0.4142   0.5974
V7     V     0.8736   0.9142   0.0974
V8     V     0.8736   0.9142   0.5974
V9     V     0.1264   0.0858   0.4026
V10     V     0.1264   0.0858   0.9026
V11     V     0.1264   0.5858   0.4026
V12     V     0.1264   0.5858   0.9026
V13     V     0.8736   0.0858   0.4026
V14     V     0.8736   0.0858   0.9026
V15     V     0.8736   0.5858   0.4026
V16     V     0.8736   0.5858   0.9026
V17     V     0.1264   0.3358   0.3474
V18     V     0.1264   0.3358   0.8474
V19     V     0.1264   0.8358   0.3474
V20     V     0.1264   0.8358   0.8474
V21     V     0.8736   0.3358   0.3474
V22     V     0.8736   0.3358   0.8474
V23     V     0.8736   0.8358   0.3474
V24     V     0.8736   0.8358   0.8474
V25     V     0.1264   0.1642   0.1526
V26     V     0.1264   0.1642   0.6526
V27     V     0.1264   0.6642   0.1526
V28     V     0.1264   0.6642   0.6526
V29     V     0.8736   0.1642   0.1526
V30     V     0.8736   0.1642   0.6526
V31     V     0.8736   0.6642   0.1526
V32     V     0.8736   0.6642   0.6526
V33     V     0.6264   0.0858   0.3474
V34     V     0.6264   0.0858   0.8474
V35     V     0.6264   0.5858   0.3474
V36     V     0.6264   0.5858   0.8474
V37     V     0.3736   0.0858   0.3474
V38     V     0.3736   0.0858   0.8474
V39     V     0.3736   0.5858   0.3474
V40     V     0.3736   0.5858   0.8474
V41     V     0.6264   0.4142   0.1526
V42     V     0.6264   0.4142   0.6526
V43     V     0.6264   0.9142   0.1526
V44     V     0.6264   0.9142   0.6526
V45     V     0.3736   0.4142   0.1526
V46     V     0.3736   0.4142   0.6526
V47     V     0.3736   0.9142   0.1526
V48     V     0.3736   0.9142   0.6526
V49     V     0.6264   0.1642   0.0974
V50     V     0.6264   0.1642   0.5974
V51     V     0.6264   0.6642   0.0974
V52     V     0.6264   0.6642   0.5974
V53     V     0.3736   0.1642   0.0974
V54     V     0.3736   0.1642   0.5974
V55     V     0.3736   0.6642   0.0974
V56     V     0.3736   0.6642   0.5974
V57     V     0.6264   0.3358   0.4026
V58     V     0.6264   0.3358   0.9026
V59     V     0.6264   0.8358   0.4026
V60     V     0.6264   0.8358   0.9026
V61     V     0.3736   0.3358   0.4026
V62     V     0.3736   0.3358   0.9026
V63     V     0.3736   0.8358   0.4026
V64     V     0.3736   0.8358   0.9026
loop_
_geom_bond_atom_site_label_1
_geom_bond_atom_site_label_2
_geom_bond_distance
_geom_bond_site_symmetry_2
_ccdc_geom_bond_type
V1     V17    10.0   .     S
V1     V25    10.0   .     S
V1     V5    10.0   1_455     S
V1     V12    10.0   1_554     S
V1     V27    10.0   .     S
V1     V18    10.0   1_554     S
V1     V45    10.0   .     S
V2     V18    10.0   .     S
V2     V26    10.0   .     S
V2     V6    10.0   1_455     S
V2     V11    10.0   .     S
V2     V28    10.0   .     S
V2     V17    10.0   .     S
V2     V46    10.0   .     S
V3     V19    10.0   .     S
V3     V27    10.0   .     S
V3     V7    10.0   1_455     S
V3     V10    10.0   1_564     S
V3     V25    10.0   1_565     S
V3     V20    10.0   1_554     S
V3     V47    10.0   .     S
V4     V20    10.0   .     S
V4     V28    10.0   .     S
V4     V8    10.0   1_455     S
V4     V9    10.0   1_565     S
V4     V26    10.0   1_565     S
V4     V19    10.0   .     S
V4     V48    10.0   .     S
V5     V21    10.0   .     S
V5     V29    10.0   .     S
V5     V1    10.0   1_655     S
V5     V16    10.0   1_554     S
V5     V31    10.0   .     S
V5     V22    10.0   1_554     S
V5     V41    10.0   .     S
V6     V22    10.0   .     S
V6     V30    10.0   .     S
V6     V2    10.0   1_655     S
V6     V15    10.0   .     S
V6     V32    10.0   .     S
V6     V21    10.0   .     S
V6     V42    10.0   .     S
V7     V23    10.0   .     S
V7     V31    10.0   .     S
V7     V3    10.0   1_655     S
V7     V14    10.0   1_564     S
V7     V29    10.0   1_565     S
V7     V24    10.0   1_554     S
V7     V43    10.0   .     S
V8     V24    10.0   .     S
V8     V32    10.0   .     S
V8     V4    10.0   1_655     S
V8     V13    10.0   1_565     S
V8     V30    10.0   1_565     S
V8     V23    10.0   .     S
V8     V44    10.0   .     S
V9     V13    10.0   1_455     S
V9     V4    10.0   1_545     S
V9     V26    10.0   .     S
V9     V25    10.0   .     S
V9     V17    10.0   .     S
V9     V19    10.0   1_545     S
V9     V37    10.0   .     S
V10     V14    10.0   1_455     S
V10     V3    10.0   1_546     S
V10     V25    10.0   1_556     S
V10     V26    10.0   .     S
V10     V18    10.0   .     S
V10     V20    10.0   1_545     S
V10     V38    10.0   .     S
V11     V15    10.0   1_455     S
V11     V28    10.0   .     S
V11     V27    10.0   .     S
V11     V19    10.0   .     S
V11     V17    10.0   .     S
V11     V39    10.0   .     S
V12     V16    10.0   1_455     S
V12     V1    10.0   1_556     S
V12     V27    10.0   1_556     S
V12     V28    10.0   .     S
V12     V20    10.0   .     S
V12     V18    10.0   .     S
V12     V40    10.0   .     S
V13     V9    10.0   1_655     S
V13     V8    10.0   1_545     S
V13     V30    10.0   .     S
V13     V29    10.0   .     S
V13     V21    10.0   .     S
V13     V23    10.0   1_545     S
V13     V33    10.0   .     S
V14     V10    10.0   1_655     S
V14     V7    10.0   1_546     S
V14     V29    10.0   1_556     S
V14     V30    10.0   .     S
V14     V22    10.0   .     S
V14     V24    10.0   1_545     S
V14     V34    10.0   .     S
V15     V11    10.0   1_655     S
V15     V32    10.0   .     S
V15     V31    10.0   .     S
V15     V23    10.0   .     S
V15     V21    10.0   .     S
V15     V35    10.0   .     S
V16     V12    10.0   1_655     S
V16     V5    10.0   1_556     S
V16     V31    10.0   1_556     S
V16     V32    10.0   .     S
V16     V24    10.0   .     S
V16     V22    10.0   .     S
V16     V36    10.0   .     S
V17     V21    10.0   1_455     S
V17     V25    10.0   .     S
V17     V61    10.0   .     S
V18     V22    10.0   1_455     S
V18     V26    10.0   .     S
V18     V1    10.0   1_556     S
V18     V62    10.0   .     S
V19     V23    10.0   1_455     S
V19     V27    10.0   .     S
V19     V9    10.0   1_565     S
V19     V63    10.0   .     S
V20     V24    10.0   1_455     S
V20     V28    10.0   .     S
V20     V3    10.0   1_556     S
V20     V10    10.0   1_565     S
V20     V64    10.0   .     S
V21     V17    10.0   1_655     S
V21     V29    10.0   .     S
V21     V57    10.0   .     S
V22     V5    10.0   1_556     S
V22     V18    10.0   1_655     S
V22     V30    10.0   .     S
V22     V58    10.0   .     S
V23     V13    10.0   1_565     S
V23     V19    10.0   1_655     S
V23     V31    10.0   .     S
V23     V59    10.0   .     S
V24     V7    10.0   1_556     S
V24     V14    10.0   1_565     S
V24     V20    10.0   1_655     S
V24     V32    10.0   .     S
V24     V60    10.0   .     S
V25     V10    10.0   1_554     S
V25     V3    10.0   1_545     S
V25     V29    10.0   1_455     S
V25     V53    10.0   .     S
V26     V4    10.0   1_545     S
V26     V30    10.0   1_455     S
V26     V54    10.0   .     S
V27     V12    10.0   1_554     S
V27     V31    10.0   1_455     S
V27     V55    10.0   .     S
V28     V32    10.0   1_455     S
V28     V56    10.0   .     S
V29     V14    10.0   1_554     S
V29     V7    10.0   1_545     S
V29     V25    10.0   1_655     S
V29     V49    10.0   .     S
V30     V8    10.0   1_545     S
V30     V26    10.0   1_655     S
V30     V50    10.0   .     S
V31     V16    10.0   1_554     S
V31     V27    10.0   1_655     S
V31     V51    10.0   .     S
V32     V28    10.0   1_655     S
V32     V52    10.0   .     S
V33     V50    10.0   .     S
V33     V57    10.0   .     S
V33     V59    10.0   1_545     S
V33     V37    10.0   .     S
V33     V43    10.0   1_545     S
V33     V49    10.0   .     S
V34     V49    10.0   1_556     S
V34     V58    10.0   .     S
V34     V60    10.0   1_545     S
V34     V38    10.0   .     S
V34     V44    10.0   1_545     S
V34     V50    10.0   .     S
V35     V52    10.0   .     S
V35     V59    10.0   .     S
V35     V57    10.0   .     S
V35     V39    10.0   .     S
V35     V41    10.0   .     S
V35     V51    10.0   .     S
V36     V51    10.0   1_556     S
V36     V60    10.0   .     S
V36     V58    10.0   .     S
V36     V40    10.0   .     S
V36     V42    10.0   .     S
V36     V52    10.0   .     S
V37     V54    10.0   .     S
V37     V61    10.0   .     S
V37     V47    10.0   1_545     S
V37     V63    10.0   1_545     S
V37     V53    10.0   .     S
V38     V53    10.0   1_556     S
V38     V62    10.0   .     S
V38     V48    10.0   1_545     S
V38     V64    10.0   1_545     S
V38     V54    10.0   .     S
V39     V56    10.0   .     S
V39     V63    10.0   .     S
V39     V45    10.0   .     S
V39     V61    10.0   .     S
V39     V55    10.0   .     S
V40     V55    10.0   1_556     S
V40     V64    10.0   .     S
V40     V46    10.0   .     S
V40     V62    10.0   .     S
V40     V56    10.0   .     S
V41     V58    10.0   1_554     S
V41     V49    10.0   .     S
V41     V57    10.0   .     S
V41     V45    10.0   .     S
V41     V51    10.0   .     S
V42     V57    10.0   .     S
V42     V50    10.0   .     S
V42     V58    10.0   .     S
V42     V46    10.0   .     S
V42     V52    10.0   .     S
V43     V60    10.0   1_554     S
V43     V51    10.0   .     S
V43     V59    10.0   .     S
V43     V47    10.0   .     S
V43     V33    10.0   1_565     S
V43     V49    10.0   1_565     S
V44     V59    10.0   .     S
V44     V52    10.0   .     S
V44     V60    10.0   .     S
V44     V48    10.0   .     S
V44     V34    10.0   1_565     S
V44     V50    10.0   1_565     S
V45     V62    10.0   1_554     S
V45     V53    10.0   .     S
V45     V61    10.0   .     S
V45     V55    10.0   .     S
V46     V61    10.0   .     S
V46     V54    10.0   .     S
V46     V62    10.0   .     S
V46     V56    10.0   .     S
V47     V64    10.0   1_554     S
V47     V55    10.0   .     S
V47     V37    10.0   1_565     S
V47     V63    10.0   .     S
V47     V53    10.0   1_565     S
V48     V63    10.0   .     S
V48     V56    10.0   .     S
V48     V38    10.0   1_565     S
V48     V64    10.0   .     S
V48     V54    10.0   1_565     S
V49     V34    10.0   1_554     S
V49     V43    10.0   1_545     S
V49     V53    10.0   .     S
V49     V58    10.0   1_554     S
V50     V44    10.0   1_545     S
V50     V54    10.0   .     S
V50     V57    10.0   .     S
V51     V36    10.0   1_554     S
V51     V55    10.0   .     S
V51     V60    10.0   1_554     S
V52     V56    10.0   .     S
V52     V59    10.0   .     S
V53     V38    10.0   1_554     S
V53     V62    10.0   1_554     S
V53     V47    10.0   1_545     S
V54     V61    10.0   .     S
V54     V48    10.0   1_545     S
V55     V40    10.0   1_554     S
V55     V64    10.0   1_554     S
V56     V63    10.0   .     S
V57     V61    10.0   .     S
V58     V41    10.0   1_556     S
V58     V62    10.0   .     S
V58     V49    10.0   1_556     S
V59     V33    10.0   1_565     S
V59     V63    10.0   .     S
V60     V43    10.0   1_556     S
V60     V34    10.0   1_565     S
V60     V64    10.0   .     S
V60     V51    10.0   1_556     S
V62     V45    10.0   1_556     S
V62     V53    10.0   1_556     S
V63     V37    10.0   1_565     S
V64     V47    10.0   1_556     S
V64     V38    10.0   1_565     S
V64     V55    10.0   1_556     S
