data_vcr
_audit_creation_date              2019-12-31
_audit_creation_method            'Pymatgen'
_symmetry_space_group_name_H-M    'P1'
_symmetry_Int_Tables_number       1
loop_
_symmetry_equiv_pos_as_xyz
  x,y,z
_cell_length_a                    39.4846
_cell_length_b                    36.0534
_cell_length_c                    29.9997
_cell_angle_alpha                 90.0
_cell_angle_beta                 90.0
_cell_angle_gamma                 90.0
loop_
_atom_site_label
_atom_site_type_symbol
_atom_site_fract_x
_atom_site_fract_y
_atom_site_fract_z
V1     V     0.4391   0.8804   0.3067
V2     V     0.4391   0.8804   0.64
V3     V     0.4391   0.8804   0.9733
V4     V     0.9391   0.8804   0.3067
V5     V     0.9391   0.8804   0.64
V6     V     0.9391   0.8804   0.9733
V7     V     0.4391   0.6196   0.1933
V8     V     0.4391   0.6196   0.5267
V9     V     0.4391   0.6196   0.86
V10     V     0.9391   0.6196   0.1933
V11     V     0.9391   0.6196   0.5267
V12     V     0.9391   0.6196   0.86
V13     V     0.1891   0.8804   0.0267
V14     V     0.1891   0.8804   0.36
V15     V     0.1891   0.8804   0.6933
V16     V     0.6891   0.8804   0.0267
V17     V     0.6891   0.8804   0.36
V18     V     0.6891   0.8804   0.6933
V19     V     0.1891   0.6196   0.14
V20     V     0.1891   0.6196   0.4733
V21     V     0.1891   0.6196   0.8067
V22     V     0.6891   0.6196   0.14
V23     V     0.6891   0.6196   0.4733
V24     V     0.6891   0.6196   0.8067
V25     V     0.3109   0.1196   0.3067
V26     V     0.3109   0.1196   0.64
V27     V     0.3109   0.1196   0.9733
V28     V     0.8109   0.1196   0.3067
V29     V     0.8109   0.1196   0.64
V30     V     0.8109   0.1196   0.9733
V31     V     0.3109   0.3804   0.1933
V32     V     0.3109   0.3804   0.5267
V33     V     0.3109   0.3804   0.86
V34     V     0.8109   0.3804   0.1933
V35     V     0.8109   0.3804   0.5267
V36     V     0.8109   0.3804   0.86
V37     V     0.0609   0.1196   0.0267
V38     V     0.0609   0.1196   0.36
V39     V     0.0609   0.1196   0.6933
V40     V     0.5609   0.1196   0.0267
V41     V     0.5609   0.1196   0.36
V42     V     0.5609   0.1196   0.6933
V43     V     0.0609   0.3804   0.14
V44     V     0.0609   0.3804   0.4733
V45     V     0.0609   0.3804   0.8067
V46     V     0.5609   0.3804   0.14
V47     V     0.5609   0.3804   0.4733
V48     V     0.5609   0.3804   0.8067
loop_
_geom_bond_atom_site_label_1
_geom_bond_atom_site_label_2
_geom_bond_distance
_geom_bond_site_symmetry_2
_ccdc_geom_bond_type
V1     V7    10.0   .     S
V1     V3    10.0   1_554     S
V1     V2    10.0   .     S
V1     V17    10.0   .     S
V1     V14    10.0   .     S
V1     V41    10.0   1_565     S
V1     V25    10.0   1_565     S
V2     V8    10.0   .     S
V2     V3    10.0   .     S
V2     V18    10.0   .     S
V2     V15    10.0   .     S
V2     V42    10.0   1_565     S
V2     V26    10.0   1_565     S
V3     V9    10.0   .     S
V3     V1    10.0   1_556     S
V3     V16    10.0   1_556     S
V3     V13    10.0   1_556     S
V3     V40    10.0   1_566     S
V3     V27    10.0   1_565     S
V4     V10    10.0   .     S
V4     V6    10.0   1_554     S
V4     V5    10.0   .     S
V4     V14    10.0   1_655     S
V4     V17    10.0   .     S
V4     V38    10.0   1_665     S
V4     V28    10.0   1_565     S
V5     V11    10.0   .     S
V5     V6    10.0   .     S
V5     V15    10.0   1_655     S
V5     V18    10.0   .     S
V5     V39    10.0   1_665     S
V5     V29    10.0   1_565     S
V6     V12    10.0   .     S
V6     V4    10.0   1_556     S
V6     V13    10.0   1_656     S
V6     V16    10.0   1_556     S
V6     V37    10.0   1_666     S
V6     V30    10.0   1_565     S
V7     V46    10.0   .     S
V7     V31    10.0   .     S
V7     V9    10.0   1_554     S
V7     V8    10.0   .     S
V7     V22    10.0   .     S
V7     V19    10.0   .     S
V8     V47    10.0   .     S
V8     V32    10.0   .     S
V8     V9    10.0   .     S
V8     V23    10.0   .     S
V8     V20    10.0   .     S
V9     V48    10.0   .     S
V9     V33    10.0   .     S
V9     V7    10.0   1_556     S
V9     V24    10.0   .     S
V9     V21    10.0   .     S
V10     V43    10.0   1_655     S
V10     V34    10.0   .     S
V10     V12    10.0   1_554     S
V10     V11    10.0   .     S
V10     V19    10.0   1_655     S
V10     V22    10.0   .     S
V11     V44    10.0   1_655     S
V11     V35    10.0   .     S
V11     V12    10.0   .     S
V11     V20    10.0   1_655     S
V11     V23    10.0   .     S
V12     V45    10.0   1_655     S
V12     V36    10.0   .     S
V12     V10    10.0   1_556     S
V12     V21    10.0   1_655     S
V12     V24    10.0   .     S
V13     V6    10.0   1_454     S
V13     V19    10.0   .     S
V13     V14    10.0   .     S
V13     V15    10.0   1_554     S
V13     V3    10.0   1_554     S
V13     V37    10.0   1_565     S
V13     V27    10.0   1_564     S
V14     V4    10.0   1_455     S
V14     V20    10.0   .     S
V14     V15    10.0   .     S
V14     V38    10.0   1_565     S
V14     V25    10.0   1_565     S
V15     V5    10.0   1_455     S
V15     V21    10.0   .     S
V15     V13    10.0   1_556     S
V15     V39    10.0   1_565     S
V15     V26    10.0   1_565     S
V16     V3    10.0   1_554     S
V16     V22    10.0   .     S
V16     V17    10.0   .     S
V16     V18    10.0   1_554     S
V16     V6    10.0   1_554     S
V16     V40    10.0   1_565     S
V16     V30    10.0   1_564     S
V17     V23    10.0   .     S
V17     V18    10.0   .     S
V17     V41    10.0   1_565     S
V17     V28    10.0   1_565     S
V18     V24    10.0   .     S
V18     V16    10.0   1_556     S
V18     V42    10.0   1_565     S
V18     V29    10.0   1_565     S
V19     V43    10.0   .     S
V19     V31    10.0   .     S
V19     V10    10.0   1_455     S
V19     V20    10.0   .     S
V19     V21    10.0   1_554     S
V20     V44    10.0   .     S
V20     V32    10.0   .     S
V20     V11    10.0   1_455     S
V20     V21    10.0   .     S
V21     V45    10.0   .     S
V21     V33    10.0   .     S
V21     V12    10.0   1_455     S
V21     V19    10.0   1_556     S
V22     V46    10.0   .     S
V22     V34    10.0   .     S
V22     V23    10.0   .     S
V22     V24    10.0   1_554     S
V23     V47    10.0   .     S
V23     V35    10.0   .     S
V23     V24    10.0   .     S
V24     V48    10.0   .     S
V24     V36    10.0   .     S
V24     V22    10.0   1_556     S
V25     V1    10.0   1_545     S
V25     V14    10.0   1_545     S
V25     V31    10.0   .     S
V25     V27    10.0   1_554     S
V25     V26    10.0   .     S
V25     V41    10.0   .     S
V25     V38    10.0   .     S
V26     V2    10.0   1_545     S
V26     V15    10.0   1_545     S
V26     V32    10.0   .     S
V26     V27    10.0   .     S
V26     V42    10.0   .     S
V26     V39    10.0   .     S
V27     V3    10.0   1_545     S
V27     V13    10.0   1_546     S
V27     V33    10.0   .     S
V27     V25    10.0   1_556     S
V27     V40    10.0   1_556     S
V27     V37    10.0   1_556     S
V28     V4    10.0   1_545     S
V28     V17    10.0   1_545     S
V28     V34    10.0   .     S
V28     V30    10.0   1_554     S
V28     V29    10.0   .     S
V28     V38    10.0   1_655     S
V28     V41    10.0   .     S
V29     V5    10.0   1_545     S
V29     V18    10.0   1_545     S
V29     V35    10.0   .     S
V29     V30    10.0   .     S
V29     V39    10.0   1_655     S
V29     V42    10.0   .     S
V30     V6    10.0   1_545     S
V30     V16    10.0   1_546     S
V30     V36    10.0   .     S
V30     V28    10.0   1_556     S
V30     V37    10.0   1_656     S
V30     V40    10.0   1_556     S
V31     V33    10.0   1_554     S
V31     V32    10.0   .     S
V31     V46    10.0   .     S
V31     V43    10.0   .     S
V32     V33    10.0   .     S
V32     V47    10.0   .     S
V32     V44    10.0   .     S
V33     V31    10.0   1_556     S
V33     V48    10.0   .     S
V33     V45    10.0   .     S
V34     V36    10.0   1_554     S
V34     V35    10.0   .     S
V34     V43    10.0   1_655     S
V34     V46    10.0   .     S
V35     V36    10.0   .     S
V35     V44    10.0   1_655     S
V35     V47    10.0   .     S
V36     V34    10.0   1_556     S
V36     V45    10.0   1_655     S
V36     V48    10.0   .     S
V37     V13    10.0   1_545     S
V37     V6    10.0   1_444     S
V37     V30    10.0   1_454     S
V37     V43    10.0   .     S
V37     V38    10.0   .     S
V37     V39    10.0   1_554     S
V37     V27    10.0   1_554     S
V38     V14    10.0   1_545     S
V38     V4    10.0   1_445     S
V38     V28    10.0   1_455     S
V38     V44    10.0   .     S
V38     V39    10.0   .     S
V39     V15    10.0   1_545     S
V39     V5    10.0   1_445     S
V39     V29    10.0   1_455     S
V39     V45    10.0   .     S
V39     V37    10.0   1_556     S
V40     V16    10.0   1_545     S
V40     V3    10.0   1_544     S
V40     V27    10.0   1_554     S
V40     V46    10.0   .     S
V40     V41    10.0   .     S
V40     V42    10.0   1_554     S
V40     V30    10.0   1_554     S
V41     V17    10.0   1_545     S
V41     V1    10.0   1_545     S
V41     V47    10.0   .     S
V41     V42    10.0   .     S
V42     V18    10.0   1_545     S
V42     V2    10.0   1_545     S
V42     V48    10.0   .     S
V42     V40    10.0   1_556     S
V43     V10    10.0   1_455     S
V43     V34    10.0   1_455     S
V43     V44    10.0   .     S
V43     V45    10.0   1_554     S
V44     V11    10.0   1_455     S
V44     V35    10.0   1_455     S
V44     V45    10.0   .     S
V45     V12    10.0   1_455     S
V45     V36    10.0   1_455     S
V45     V43    10.0   1_556     S
V46     V47    10.0   .     S
V46     V48    10.0   1_554     S
V47     V48    10.0   .     S
V48     V46    10.0   1_556     S
