data_vcs
_audit_creation_date              2019-12-31
_audit_creation_method            'Pymatgen'
_symmetry_space_group_name_H-M    'P1'
_symmetry_Int_Tables_number       1
loop_
_symmetry_equiv_pos_as_xyz
  x,y,z
_cell_length_a                    37.5096
_cell_length_b                    26.1586
_cell_length_c                    28.2426
_cell_angle_alpha                 90.0
_cell_angle_beta                 90.0
_cell_angle_gamma                 90.0
loop_
_atom_site_label
_atom_site_type_symbol
_atom_site_fract_x
_atom_site_fract_y
_atom_site_fract_z
V1     V     0.0888   0.125   0.1865
V2     V     0.0888   0.125   0.6865
V3     V     0.0888   0.625   0.1865
V4     V     0.0888   0.625   0.6865
V5     V     0.5888   0.125   0.1865
V6     V     0.5888   0.125   0.6865
V7     V     0.5888   0.625   0.1865
V8     V     0.5888   0.625   0.6865
V9     V     0.4112   0.375   0.3135
V10     V     0.4112   0.375   0.8135
V11     V     0.4112   0.875   0.3135
V12     V     0.4112   0.875   0.8135
V13     V     0.9112   0.375   0.3135
V14     V     0.9112   0.375   0.8135
V15     V     0.9112   0.875   0.3135
V16     V     0.9112   0.875   0.8135
V17     V     0.1612   0.375   0.4365
V18     V     0.1612   0.375   0.9365
V19     V     0.1612   0.875   0.4365
V20     V     0.1612   0.875   0.9365
V21     V     0.6612   0.375   0.4365
V22     V     0.6612   0.375   0.9365
V23     V     0.6612   0.875   0.4365
V24     V     0.6612   0.875   0.9365
V25     V     0.3388   0.125   0.0635
V26     V     0.3388   0.125   0.5635
V27     V     0.3388   0.625   0.0635
V28     V     0.3388   0.625   0.5635
V29     V     0.8388   0.125   0.0635
V30     V     0.8388   0.125   0.5635
V31     V     0.8388   0.625   0.0635
V32     V     0.8388   0.625   0.5635
loop_
_geom_bond_atom_site_label_1
_geom_bond_atom_site_label_2
_geom_bond_distance
_geom_bond_site_symmetry_2
_ccdc_geom_bond_type
V1     V20    10.0   1_544     S
V1     V25    10.0   .     S
V1     V18    10.0   1_554     S
V1     V19    10.0   1_545     S
V1     V17    10.0   .     S
V1     V15    10.0   1_445     S
V1     V13    10.0   1_455     S
V1     V29    10.0   1_455     S
V2     V19    10.0   1_545     S
V2     V26    10.0   .     S
V2     V17    10.0   .     S
V2     V20    10.0   1_545     S
V2     V18    10.0   .     S
V2     V16    10.0   1_445     S
V2     V14    10.0   1_455     S
V2     V30    10.0   1_455     S
V3     V18    10.0   1_554     S
V3     V27    10.0   .     S
V3     V20    10.0   1_554     S
V3     V17    10.0   .     S
V3     V19    10.0   .     S
V3     V13    10.0   1_455     S
V3     V15    10.0   1_455     S
V3     V31    10.0   1_455     S
V4     V17    10.0   .     S
V4     V28    10.0   .     S
V4     V19    10.0   .     S
V4     V18    10.0   .     S
V4     V20    10.0   .     S
V4     V14    10.0   1_455     S
V4     V16    10.0   1_455     S
V4     V32    10.0   1_455     S
V5     V24    10.0   1_544     S
V5     V29    10.0   .     S
V5     V22    10.0   1_554     S
V5     V23    10.0   1_545     S
V5     V21    10.0   .     S
V5     V11    10.0   1_545     S
V5     V9    10.0   .     S
V5     V25    10.0   .     S
V6     V23    10.0   1_545     S
V6     V30    10.0   .     S
V6     V21    10.0   .     S
V6     V24    10.0   1_545     S
V6     V22    10.0   .     S
V6     V12    10.0   1_545     S
V6     V10    10.0   .     S
V6     V26    10.0   .     S
V7     V22    10.0   1_554     S
V7     V31    10.0   .     S
V7     V24    10.0   1_554     S
V7     V21    10.0   .     S
V7     V23    10.0   .     S
V7     V9    10.0   .     S
V7     V11    10.0   .     S
V7     V27    10.0   .     S
V8     V21    10.0   .     S
V8     V32    10.0   .     S
V8     V23    10.0   .     S
V8     V22    10.0   .     S
V8     V24    10.0   .     S
V8     V10    10.0   .     S
V8     V12    10.0   .     S
V8     V28    10.0   .     S
V9     V21    10.0   .     S
V9     V26    10.0   .     S
V9     V17    10.0   .     S
V9     V28    10.0   .     S
V9     V27    10.0   .     S
V9     V25    10.0   .     S
V10     V22    10.0   .     S
V10     V25    10.0   1_556     S
V10     V18    10.0   .     S
V10     V27    10.0   1_556     S
V10     V28    10.0   .     S
V10     V26    10.0   .     S
V11     V23    10.0   .     S
V11     V5    10.0   1_565     S
V11     V28    10.0   .     S
V11     V19    10.0   .     S
V11     V26    10.0   1_565     S
V11     V25    10.0   1_565     S
V11     V27    10.0   .     S
V12     V24    10.0   .     S
V12     V6    10.0   1_565     S
V12     V27    10.0   1_556     S
V12     V20    10.0   .     S
V12     V25    10.0   1_566     S
V12     V26    10.0   1_565     S
V12     V28    10.0   .     S
V13     V17    10.0   1_655     S
V13     V3    10.0   1_655     S
V13     V1    10.0   1_655     S
V13     V30    10.0   .     S
V13     V21    10.0   .     S
V13     V32    10.0   .     S
V13     V31    10.0   .     S
V13     V29    10.0   .     S
V14     V18    10.0   1_655     S
V14     V4    10.0   1_655     S
V14     V2    10.0   1_655     S
V14     V29    10.0   1_556     S
V14     V22    10.0   .     S
V14     V31    10.0   1_556     S
V14     V32    10.0   .     S
V14     V30    10.0   .     S
V15     V19    10.0   1_655     S
V15     V1    10.0   1_665     S
V15     V3    10.0   1_655     S
V15     V32    10.0   .     S
V15     V23    10.0   .     S
V15     V30    10.0   1_565     S
V15     V29    10.0   1_565     S
V15     V31    10.0   .     S
V16     V20    10.0   1_655     S
V16     V2    10.0   1_665     S
V16     V4    10.0   1_655     S
V16     V31    10.0   1_556     S
V16     V24    10.0   .     S
V16     V29    10.0   1_566     S
V16     V30    10.0   1_565     S
V16     V32    10.0   .     S
V17     V13    10.0   1_455     S
V17     V26    10.0   .     S
V17     V28    10.0   .     S
V18     V3    10.0   1_556     S
V18     V1    10.0   1_556     S
V18     V14    10.0   1_455     S
V18     V25    10.0   1_556     S
V18     V27    10.0   1_556     S
V19     V2    10.0   1_565     S
V19     V1    10.0   1_565     S
V19     V15    10.0   1_455     S
V19     V28    10.0   .     S
V19     V26    10.0   1_565     S
V20     V1    10.0   1_566     S
V20     V3    10.0   1_556     S
V20     V2    10.0   1_565     S
V20     V16    10.0   1_455     S
V20     V27    10.0   1_556     S
V20     V25    10.0   1_566     S
V21     V30    10.0   .     S
V21     V32    10.0   .     S
V22     V7    10.0   1_556     S
V22     V5    10.0   1_556     S
V22     V29    10.0   1_556     S
V22     V31    10.0   1_556     S
V23     V6    10.0   1_565     S
V23     V5    10.0   1_565     S
V23     V32    10.0   .     S
V23     V30    10.0   1_565     S
V24     V5    10.0   1_566     S
V24     V7    10.0   1_556     S
V24     V6    10.0   1_565     S
V24     V31    10.0   1_556     S
V24     V29    10.0   1_566     S
V25     V10    10.0   1_554     S
V25     V12    10.0   1_544     S
V25     V18    10.0   1_554     S
V25     V20    10.0   1_544     S
V25     V11    10.0   1_545     S
V26     V11    10.0   1_545     S
V26     V19    10.0   1_545     S
V26     V12    10.0   1_545     S
V27     V12    10.0   1_554     S
V27     V10    10.0   1_554     S
V27     V20    10.0   1_554     S
V27     V18    10.0   1_554     S
V29     V14    10.0   1_554     S
V29     V16    10.0   1_544     S
V29     V22    10.0   1_554     S
V29     V24    10.0   1_544     S
V29     V15    10.0   1_545     S
V29     V1    10.0   1_655     S
V30     V15    10.0   1_545     S
V30     V23    10.0   1_545     S
V30     V16    10.0   1_545     S
V30     V2    10.0   1_655     S
V31     V16    10.0   1_554     S
V31     V14    10.0   1_554     S
V31     V24    10.0   1_554     S
V31     V22    10.0   1_554     S
V31     V3    10.0   1_655     S
V32     V4    10.0   1_655     S
