data_vct
_audit_creation_date              2019-12-31
_audit_creation_method            'Pymatgen'
_symmetry_space_group_name_H-M    'P1'
_symmetry_Int_Tables_number       1
loop_
_symmetry_equiv_pos_as_xyz
  x,y,z
_cell_length_a                    38.2898
_cell_length_b                    38.218
_cell_length_c                    37.118
_cell_angle_alpha                 90.0
_cell_angle_beta                 90.0
_cell_angle_gamma                 90.0
loop_
_atom_site_label
_atom_site_type_symbol
_atom_site_fract_x
_atom_site_fract_y
_atom_site_fract_z
V1     V     0.1635   0.0952   0.274
V2     V     0.1635   0.0952   0.774
V3     V     0.1635   0.5952   0.274
V4     V     0.1635   0.5952   0.774
V5     V     0.6635   0.0952   0.274
V6     V     0.6635   0.0952   0.774
V7     V     0.6635   0.5952   0.274
V8     V     0.6635   0.5952   0.774
V9     V     0.3365   0.4048   0.226
V10     V     0.3365   0.4048   0.726
V11     V     0.3365   0.9048   0.226
V12     V     0.3365   0.9048   0.726
V13     V     0.8365   0.4048   0.226
V14     V     0.8365   0.4048   0.726
V15     V     0.8365   0.9048   0.226
V16     V     0.8365   0.9048   0.726
V17     V     0.4135   0.1548   0.226
V18     V     0.4135   0.1548   0.726
V19     V     0.4135   0.6548   0.226
V20     V     0.4135   0.6548   0.726
V21     V     0.9135   0.1548   0.226
V22     V     0.9135   0.1548   0.726
V23     V     0.9135   0.6548   0.226
V24     V     0.9135   0.6548   0.726
V25     V     0.0865   0.3452   0.274
V26     V     0.0865   0.3452   0.774
V27     V     0.0865   0.8452   0.274
V28     V     0.0865   0.8452   0.774
V29     V     0.5865   0.3452   0.274
V30     V     0.5865   0.3452   0.774
V31     V     0.5865   0.8452   0.274
V32     V     0.5865   0.8452   0.774
V33     V     0.0865   0.1548   0.024
V34     V     0.0865   0.1548   0.524
V35     V     0.0865   0.6548   0.024
V36     V     0.0865   0.6548   0.524
V37     V     0.5865   0.1548   0.024
V38     V     0.5865   0.1548   0.524
V39     V     0.5865   0.6548   0.024
V40     V     0.5865   0.6548   0.524
V41     V     0.4135   0.3452   0.4759
V42     V     0.4135   0.3452   0.9759
V43     V     0.4135   0.8452   0.4759
V44     V     0.4135   0.8452   0.9759
V45     V     0.9135   0.3452   0.4759
V46     V     0.9135   0.3452   0.9759
V47     V     0.9135   0.8452   0.4759
V48     V     0.9135   0.8452   0.9759
V49     V     0.3365   0.0952   0.4759
V50     V     0.3365   0.0952   0.9759
V51     V     0.3365   0.5952   0.4759
V52     V     0.3365   0.5952   0.9759
V53     V     0.8365   0.0952   0.4759
V54     V     0.8365   0.0952   0.9759
V55     V     0.8365   0.5952   0.4759
V56     V     0.8365   0.5952   0.9759
V57     V     0.1635   0.4048   0.024
V58     V     0.1635   0.4048   0.524
V59     V     0.1635   0.9048   0.024
V60     V     0.1635   0.9048   0.524
V61     V     0.6635   0.4048   0.024
V62     V     0.6635   0.4048   0.524
V63     V     0.6635   0.9048   0.024
V64     V     0.6635   0.9048   0.524
loop_
_geom_bond_atom_site_label_1
_geom_bond_atom_site_label_2
_geom_bond_distance
_geom_bond_site_symmetry_2
_ccdc_geom_bond_type
V1     V17    10.0   .     S
V1     V25    10.0   .     S
V1     V21    10.0   1_455     S
V1     V11    10.0   1_545     S
V1     V27    10.0   1_545     S
V1     V49    10.0   .     S
V1     V34    10.0   .     S
V1     V33    10.0   .     S
V2     V18    10.0   .     S
V2     V26    10.0   .     S
V2     V22    10.0   1_455     S
V2     V12    10.0   1_545     S
V2     V28    10.0   1_545     S
V2     V50    10.0   .     S
V2     V33    10.0   1_556     S
V2     V34    10.0   .     S
V3     V19    10.0   .     S
V3     V27    10.0   .     S
V3     V23    10.0   1_455     S
V3     V9    10.0   .     S
V3     V25    10.0   .     S
V3     V51    10.0   .     S
V3     V36    10.0   .     S
V3     V35    10.0   .     S
V4     V20    10.0   .     S
V4     V28    10.0   .     S
V4     V24    10.0   1_455     S
V4     V10    10.0   .     S
V4     V26    10.0   .     S
V4     V52    10.0   .     S
V4     V35    10.0   1_556     S
V4     V36    10.0   .     S
V5     V21    10.0   .     S
V5     V29    10.0   .     S
V5     V17    10.0   .     S
V5     V15    10.0   1_545     S
V5     V31    10.0   1_545     S
V5     V53    10.0   .     S
V5     V38    10.0   .     S
V5     V37    10.0   .     S
V6     V22    10.0   .     S
V6     V30    10.0   .     S
V6     V18    10.0   .     S
V6     V16    10.0   1_545     S
V6     V32    10.0   1_545     S
V6     V54    10.0   .     S
V6     V37    10.0   1_556     S
V6     V38    10.0   .     S
V7     V23    10.0   .     S
V7     V31    10.0   .     S
V7     V19    10.0   .     S
V7     V13    10.0   .     S
V7     V29    10.0   .     S
V7     V55    10.0   .     S
V7     V40    10.0   .     S
V7     V39    10.0   .     S
V8     V24    10.0   .     S
V8     V32    10.0   .     S
V8     V20    10.0   .     S
V8     V14    10.0   .     S
V8     V30    10.0   .     S
V8     V56    10.0   .     S
V8     V39    10.0   1_556     S
V8     V40    10.0   .     S
V9     V17    10.0   .     S
V9     V29    10.0   .     S
V9     V19    10.0   .     S
V9     V25    10.0   .     S
V9     V41    10.0   .     S
V9     V57    10.0   .     S
V9     V42    10.0   1_554     S
V10     V18    10.0   .     S
V10     V30    10.0   .     S
V10     V20    10.0   .     S
V10     V26    10.0   .     S
V10     V42    10.0   .     S
V10     V58    10.0   .     S
V10     V41    10.0   .     S
V11     V19    10.0   .     S
V11     V31    10.0   .     S
V11     V17    10.0   1_565     S
V11     V1    10.0   1_565     S
V11     V27    10.0   .     S
V11     V43    10.0   .     S
V11     V59    10.0   .     S
V11     V44    10.0   1_554     S
V12     V20    10.0   .     S
V12     V32    10.0   .     S
V12     V18    10.0   1_565     S
V12     V2    10.0   1_565     S
V12     V28    10.0   .     S
V12     V44    10.0   .     S
V12     V60    10.0   .     S
V12     V43    10.0   .     S
V13     V21    10.0   .     S
V13     V25    10.0   1_655     S
V13     V23    10.0   .     S
V13     V29    10.0   .     S
V13     V45    10.0   .     S
V13     V61    10.0   .     S
V13     V46    10.0   1_554     S
V14     V22    10.0   .     S
V14     V26    10.0   1_655     S
V14     V24    10.0   .     S
V14     V30    10.0   .     S
V14     V46    10.0   .     S
V14     V62    10.0   .     S
V14     V45    10.0   .     S
V15     V23    10.0   .     S
V15     V27    10.0   1_655     S
V15     V21    10.0   1_565     S
V15     V5    10.0   1_565     S
V15     V31    10.0   .     S
V15     V47    10.0   .     S
V15     V63    10.0   .     S
V15     V48    10.0   1_554     S
V16     V24    10.0   .     S
V16     V28    10.0   1_655     S
V16     V22    10.0   1_565     S
V16     V6    10.0   1_565     S
V16     V32    10.0   .     S
V16     V48    10.0   .     S
V16     V64    10.0   .     S
V16     V47    10.0   .     S
V17     V11    10.0   1_545     S
V17     V29    10.0   .     S
V17     V37    10.0   .     S
V17     V49    10.0   .     S
V17     V50    10.0   1_554     S
V18     V12    10.0   1_545     S
V18     V30    10.0   .     S
V18     V38    10.0   .     S
V18     V50    10.0   .     S
V18     V49    10.0   .     S
V19     V31    10.0   .     S
V19     V39    10.0   .     S
V19     V51    10.0   .     S
V19     V52    10.0   1_554     S
V20     V32    10.0   .     S
V20     V40    10.0   .     S
V20     V52    10.0   .     S
V20     V51    10.0   .     S
V21     V15    10.0   1_545     S
V21     V1    10.0   1_655     S
V21     V25    10.0   1_655     S
V21     V33    10.0   1_655     S
V21     V53    10.0   .     S
V21     V54    10.0   1_554     S
V22     V16    10.0   1_545     S
V22     V2    10.0   1_655     S
V22     V26    10.0   1_655     S
V22     V34    10.0   1_655     S
V22     V54    10.0   .     S
V22     V53    10.0   .     S
V23     V3    10.0   1_655     S
V23     V27    10.0   1_655     S
V23     V35    10.0   1_655     S
V23     V55    10.0   .     S
V23     V56    10.0   1_554     S
V24     V4    10.0   1_655     S
V24     V28    10.0   1_655     S
V24     V36    10.0   1_655     S
V24     V56    10.0   .     S
V24     V55    10.0   .     S
V25     V13    10.0   1_455     S
V25     V21    10.0   1_455     S
V25     V45    10.0   1_455     S
V25     V58    10.0   .     S
V25     V57    10.0   .     S
V26     V14    10.0   1_455     S
V26     V22    10.0   1_455     S
V26     V46    10.0   1_455     S
V26     V57    10.0   1_556     S
V26     V58    10.0   .     S
V27     V15    10.0   1_455     S
V27     V23    10.0   1_455     S
V27     V1    10.0   1_565     S
V27     V47    10.0   1_455     S
V27     V60    10.0   .     S
V27     V59    10.0   .     S
V28     V16    10.0   1_455     S
V28     V24    10.0   1_455     S
V28     V2    10.0   1_565     S
V28     V48    10.0   1_455     S
V28     V59    10.0   1_556     S
V28     V60    10.0   .     S
V29     V41    10.0   .     S
V29     V62    10.0   .     S
V29     V61    10.0   .     S
V30     V42    10.0   .     S
V30     V61    10.0   1_556     S
V30     V62    10.0   .     S
V31     V5    10.0   1_565     S
V31     V43    10.0   .     S
V31     V64    10.0   .     S
V31     V63    10.0   .     S
V32     V6    10.0   1_565     S
V32     V44    10.0   .     S
V32     V63    10.0   1_556     S
V32     V64    10.0   .     S
V33     V21    10.0   1_455     S
V33     V57    10.0   .     S
V33     V54    10.0   1_454     S
V33     V46    10.0   1_454     S
V33     V59    10.0   1_545     S
V33     V50    10.0   1_554     S
V33     V2    10.0   1_554     S
V34     V22    10.0   1_455     S
V34     V58    10.0   .     S
V34     V53    10.0   1_455     S
V34     V45    10.0   1_455     S
V34     V60    10.0   1_545     S
V34     V49    10.0   .     S
V35     V23    10.0   1_455     S
V35     V59    10.0   .     S
V35     V56    10.0   1_454     S
V35     V48    10.0   1_454     S
V35     V57    10.0   .     S
V35     V52    10.0   1_554     S
V35     V4    10.0   1_554     S
V36     V24    10.0   1_455     S
V36     V60    10.0   .     S
V36     V55    10.0   1_455     S
V36     V47    10.0   1_455     S
V36     V58    10.0   .     S
V36     V51    10.0   .     S
V37     V61    10.0   .     S
V37     V50    10.0   1_554     S
V37     V42    10.0   1_554     S
V37     V63    10.0   1_545     S
V37     V54    10.0   1_554     S
V37     V6    10.0   1_554     S
V38     V62    10.0   .     S
V38     V49    10.0   .     S
V38     V41    10.0   .     S
V38     V64    10.0   1_545     S
V38     V53    10.0   .     S
V39     V63    10.0   .     S
V39     V52    10.0   1_554     S
V39     V44    10.0   1_554     S
V39     V61    10.0   .     S
V39     V56    10.0   1_554     S
V39     V8    10.0   1_554     S
V40     V64    10.0   .     S
V40     V51    10.0   .     S
V40     V43    10.0   .     S
V40     V62    10.0   .     S
V40     V55    10.0   .     S
V41     V62    10.0   .     S
V41     V49    10.0   .     S
V41     V51    10.0   .     S
V41     V58    10.0   .     S
V42     V61    10.0   1_556     S
V42     V50    10.0   .     S
V42     V52    10.0   .     S
V42     V57    10.0   1_556     S
V42     V37    10.0   1_556     S
V42     V9    10.0   1_556     S
V43     V64    10.0   .     S
V43     V51    10.0   .     S
V43     V49    10.0   1_565     S
V43     V60    10.0   .     S
V44     V63    10.0   1_556     S
V44     V52    10.0   .     S
V44     V50    10.0   1_565     S
V44     V59    10.0   1_556     S
V44     V39    10.0   1_556     S
V44     V11    10.0   1_556     S
V45     V58    10.0   1_655     S
V45     V53    10.0   .     S
V45     V55    10.0   .     S
V45     V62    10.0   .     S
V45     V34    10.0   1_655     S
V45     V25    10.0   1_655     S
V46     V57    10.0   1_656     S
V46     V54    10.0   .     S
V46     V56    10.0   .     S
V46     V61    10.0   1_556     S
V46     V33    10.0   1_656     S
V46     V26    10.0   1_655     S
V46     V13    10.0   1_556     S
V47     V60    10.0   1_655     S
V47     V55    10.0   .     S
V47     V53    10.0   1_565     S
V47     V64    10.0   .     S
V47     V36    10.0   1_655     S
V47     V27    10.0   1_655     S
V48     V59    10.0   1_656     S
V48     V56    10.0   .     S
V48     V54    10.0   1_565     S
V48     V63    10.0   1_556     S
V48     V35    10.0   1_656     S
V48     V28    10.0   1_655     S
V48     V15    10.0   1_556     S
V49     V43    10.0   1_545     S
V49     V60    10.0   1_545     S
V50     V37    10.0   1_556     S
V50     V44    10.0   1_545     S
V50     V59    10.0   1_546     S
V50     V33    10.0   1_556     S
V50     V17    10.0   1_556     S
V51     V58    10.0   .     S
V52     V39    10.0   1_556     S
V52     V57    10.0   1_556     S
V52     V35    10.0   1_556     S
V52     V19    10.0   1_556     S
V53     V34    10.0   1_655     S
V53     V47    10.0   1_545     S
V53     V64    10.0   1_545     S
V54     V33    10.0   1_656     S
V54     V48    10.0   1_545     S
V54     V63    10.0   1_546     S
V54     V37    10.0   1_556     S
V54     V21    10.0   1_556     S
V55     V36    10.0   1_655     S
V55     V62    10.0   .     S
V56     V35    10.0   1_656     S
V56     V61    10.0   1_556     S
V56     V39    10.0   1_556     S
V56     V23    10.0   1_556     S
V57     V46    10.0   1_454     S
V57     V42    10.0   1_554     S
V57     V52    10.0   1_554     S
V57     V26    10.0   1_554     S
V58     V45    10.0   1_455     S
V59     V48    10.0   1_454     S
V59     V44    10.0   1_554     S
V59     V50    10.0   1_564     S
V59     V33    10.0   1_565     S
V59     V28    10.0   1_554     S
V60     V47    10.0   1_455     S
V60     V49    10.0   1_565     S
V60     V34    10.0   1_565     S
V61     V42    10.0   1_554     S
V61     V46    10.0   1_554     S
V61     V56    10.0   1_554     S
V61     V30    10.0   1_554     S
V63     V44    10.0   1_554     S
V63     V48    10.0   1_554     S
V63     V54    10.0   1_564     S
V63     V37    10.0   1_565     S
V63     V32    10.0   1_554     S
V64     V53    10.0   1_565     S
V64     V38    10.0   1_565     S
