data_vcu
_audit_creation_date              2019-12-31
_audit_creation_method            'Pymatgen'
_symmetry_space_group_name_H-M    'P1'
_symmetry_Int_Tables_number       1
loop_
_symmetry_equiv_pos_as_xyz
  x,y,z
_cell_length_a                    30.0
_cell_length_b                    38.7212
_cell_length_c                    34.8644
_cell_angle_alpha                 90.0
_cell_angle_beta                 90.0
_cell_angle_gamma                 90.0
loop_
_atom_site_label
_atom_site_type_symbol
_atom_site_fract_x
_atom_site_fract_y
_atom_site_fract_z
V1     V     0.1251   0.325   0.8889
V2     V     0.1251   0.825   0.8889
V3     V     0.4585   0.325   0.8889
V4     V     0.4585   0.825   0.8889
V5     V     0.7918   0.325   0.8889
V6     V     0.7918   0.825   0.8889
V7     V     0.2918   0.425   0.1111
V8     V     0.2918   0.925   0.1111
V9     V     0.6251   0.425   0.1111
V10     V     0.6251   0.925   0.1111
V11     V     0.9585   0.425   0.1111
V12     V     0.9585   0.925   0.1111
V13     V     0.0415   0.075   0.8889
V14     V     0.0415   0.575   0.8889
V15     V     0.3749   0.075   0.8889
V16     V     0.3749   0.575   0.8889
V17     V     0.7082   0.075   0.8889
V18     V     0.7082   0.575   0.8889
V19     V     0.2082   0.175   0.1111
V20     V     0.2082   0.675   0.1111
V21     V     0.5415   0.175   0.1111
V22     V     0.5415   0.675   0.1111
V23     V     0.8749   0.175   0.1111
V24     V     0.8749   0.675   0.1111
V25     V     0.2082   0.325   0.6111
V26     V     0.2082   0.825   0.6111
V27     V     0.5415   0.325   0.6111
V28     V     0.5415   0.825   0.6111
V29     V     0.8749   0.325   0.6111
V30     V     0.8749   0.825   0.6111
V31     V     0.0415   0.425   0.3889
V32     V     0.0415   0.925   0.3889
V33     V     0.3749   0.425   0.3889
V34     V     0.3749   0.925   0.3889
V35     V     0.7082   0.425   0.3889
V36     V     0.7082   0.925   0.3889
V37     V     0.1251   0.175   0.3889
V38     V     0.1251   0.675   0.3889
V39     V     0.4585   0.175   0.3889
V40     V     0.4585   0.675   0.3889
V41     V     0.7918   0.175   0.3889
V42     V     0.7918   0.675   0.3889
V43     V     0.2918   0.075   0.6111
V44     V     0.2918   0.575   0.6111
V45     V     0.6251   0.075   0.6111
V46     V     0.6251   0.575   0.6111
V47     V     0.9585   0.075   0.6111
V48     V     0.9585   0.575   0.6111
loop_
_geom_bond_atom_site_label_1
_geom_bond_atom_site_label_2
_geom_bond_distance
_geom_bond_site_symmetry_2
_ccdc_geom_bond_type
V1     V14    10.0   .     S
V1     V3    10.0   .     S
V1     V5    10.0   1_455     S
V1     V7    10.0   1_556     S
V1     V11    10.0   1_456     S
V1     V13    10.0   .     S
V1     V19    10.0   1_556     S
V1     V25    10.0   .     S
V2     V13    10.0   1_565     S
V2     V4    10.0   .     S
V2     V6    10.0   1_455     S
V2     V8    10.0   1_556     S
V2     V12    10.0   1_456     S
V2     V14    10.0   .     S
V2     V20    10.0   1_556     S
V2     V26    10.0   .     S
V3     V16    10.0   .     S
V3     V5    10.0   .     S
V3     V9    10.0   1_556     S
V3     V7    10.0   1_556     S
V3     V15    10.0   .     S
V3     V21    10.0   1_556     S
V3     V27    10.0   .     S
V4     V15    10.0   1_565     S
V4     V6    10.0   .     S
V4     V10    10.0   1_556     S
V4     V8    10.0   1_556     S
V4     V16    10.0   .     S
V4     V22    10.0   1_556     S
V4     V28    10.0   .     S
V5     V18    10.0   .     S
V5     V1    10.0   1_655     S
V5     V11    10.0   1_556     S
V5     V9    10.0   1_556     S
V5     V17    10.0   .     S
V5     V23    10.0   1_556     S
V5     V29    10.0   .     S
V6     V17    10.0   1_565     S
V6     V2    10.0   1_655     S
V6     V12    10.0   1_556     S
V6     V10    10.0   1_556     S
V6     V18    10.0   .     S
V6     V24    10.0   1_556     S
V6     V30    10.0   .     S
V7     V16    10.0   1_554     S
V7     V20    10.0   .     S
V7     V1    10.0   1_554     S
V7     V3    10.0   1_554     S
V7     V11    10.0   1_455     S
V7     V9    10.0   .     S
V7     V19    10.0   .     S
V7     V33    10.0   .     S
V8     V15    10.0   1_564     S
V8     V19    10.0   1_565     S
V8     V2    10.0   1_554     S
V8     V4    10.0   1_554     S
V8     V12    10.0   1_455     S
V8     V10    10.0   .     S
V8     V20    10.0   .     S
V8     V34    10.0   .     S
V9     V18    10.0   1_554     S
V9     V22    10.0   .     S
V9     V3    10.0   1_554     S
V9     V5    10.0   1_554     S
V9     V11    10.0   .     S
V9     V21    10.0   .     S
V9     V35    10.0   .     S
V10     V17    10.0   1_564     S
V10     V21    10.0   1_565     S
V10     V4    10.0   1_554     S
V10     V6    10.0   1_554     S
V10     V12    10.0   .     S
V10     V22    10.0   .     S
V10     V36    10.0   .     S
V11     V14    10.0   1_654     S
V11     V24    10.0   .     S
V11     V5    10.0   1_554     S
V11     V1    10.0   1_654     S
V11     V7    10.0   1_655     S
V11     V23    10.0   .     S
V11     V31    10.0   1_655     S
V12     V13    10.0   1_664     S
V12     V23    10.0   1_565     S
V12     V6    10.0   1_554     S
V12     V2    10.0   1_654     S
V12     V8    10.0   1_655     S
V12     V24    10.0   .     S
V12     V32    10.0   1_655     S
V13     V2    10.0   1_545     S
V13     V12    10.0   1_446     S
V13     V23    10.0   1_456     S
V13     V19    10.0   1_556     S
V13     V15    10.0   .     S
V13     V17    10.0   1_455     S
V13     V47    10.0   1_455     S
V14     V11    10.0   1_456     S
V14     V24    10.0   1_456     S
V14     V20    10.0   1_556     S
V14     V16    10.0   .     S
V14     V18    10.0   1_455     S
V14     V48    10.0   1_455     S
V15     V4    10.0   1_545     S
V15     V8    10.0   1_546     S
V15     V19    10.0   1_556     S
V15     V21    10.0   1_556     S
V15     V17    10.0   .     S
V15     V43    10.0   .     S
V16     V7    10.0   1_556     S
V16     V20    10.0   1_556     S
V16     V22    10.0   1_556     S
V16     V18    10.0   .     S
V16     V44    10.0   .     S
V17     V6    10.0   1_545     S
V17     V10    10.0   1_546     S
V17     V21    10.0   1_556     S
V17     V23    10.0   1_556     S
V17     V13    10.0   1_655     S
V17     V45    10.0   .     S
V18     V9    10.0   1_556     S
V18     V22    10.0   1_556     S
V18     V24    10.0   1_556     S
V18     V14    10.0   1_655     S
V18     V46    10.0   .     S
V19     V8    10.0   1_545     S
V19     V15    10.0   1_554     S
V19     V23    10.0   1_455     S
V19     V21    10.0   .     S
V19     V13    10.0   1_554     S
V19     V1    10.0   1_554     S
V19     V37    10.0   .     S
V20     V16    10.0   1_554     S
V20     V24    10.0   1_455     S
V20     V22    10.0   .     S
V20     V14    10.0   1_554     S
V20     V2    10.0   1_554     S
V20     V38    10.0   .     S
V21     V10    10.0   1_545     S
V21     V17    10.0   1_554     S
V21     V23    10.0   .     S
V21     V15    10.0   1_554     S
V21     V3    10.0   1_554     S
V21     V39    10.0   .     S
V22     V18    10.0   1_554     S
V22     V24    10.0   .     S
V22     V16    10.0   1_554     S
V22     V4    10.0   1_554     S
V22     V40    10.0   .     S
V23     V12    10.0   1_545     S
V23     V13    10.0   1_654     S
V23     V19    10.0   1_655     S
V23     V17    10.0   1_554     S
V23     V5    10.0   1_554     S
V23     V41    10.0   .     S
V24     V14    10.0   1_654     S
V24     V20    10.0   1_655     S
V24     V18    10.0   1_554     S
V24     V6    10.0   1_554     S
V24     V42    10.0   .     S
V25     V43    10.0   .     S
V25     V37    10.0   .     S
V25     V33    10.0   .     S
V25     V31    10.0   .     S
V25     V29    10.0   1_455     S
V25     V27    10.0   .     S
V25     V44    10.0   .     S
V26     V44    10.0   .     S
V26     V38    10.0   .     S
V26     V34    10.0   .     S
V26     V32    10.0   .     S
V26     V30    10.0   1_455     S
V26     V28    10.0   .     S
V26     V43    10.0   1_565     S
V27     V45    10.0   .     S
V27     V39    10.0   .     S
V27     V35    10.0   .     S
V27     V33    10.0   .     S
V27     V29    10.0   .     S
V27     V46    10.0   .     S
V28     V46    10.0   .     S
V28     V40    10.0   .     S
V28     V36    10.0   .     S
V28     V34    10.0   .     S
V28     V30    10.0   .     S
V28     V45    10.0   1_565     S
V29     V47    10.0   .     S
V29     V41    10.0   .     S
V29     V31    10.0   1_655     S
V29     V35    10.0   .     S
V29     V25    10.0   1_655     S
V29     V48    10.0   .     S
V30     V48    10.0   .     S
V30     V42    10.0   .     S
V30     V32    10.0   1_655     S
V30     V36    10.0   .     S
V30     V26    10.0   1_655     S
V30     V47    10.0   1_565     S
V31     V11    10.0   1_455     S
V31     V37    10.0   .     S
V31     V29    10.0   1_455     S
V31     V33    10.0   .     S
V31     V35    10.0   1_455     S
V31     V48    10.0   1_455     S
V31     V38    10.0   .     S
V32     V12    10.0   1_455     S
V32     V38    10.0   .     S
V32     V30    10.0   1_455     S
V32     V34    10.0   .     S
V32     V36    10.0   1_455     S
V32     V47    10.0   1_465     S
V32     V37    10.0   1_565     S
V33     V39    10.0   .     S
V33     V35    10.0   .     S
V33     V44    10.0   .     S
V33     V40    10.0   .     S
V34     V40    10.0   .     S
V34     V36    10.0   .     S
V34     V43    10.0   1_565     S
V34     V39    10.0   1_565     S
V35     V41    10.0   .     S
V35     V31    10.0   1_655     S
V35     V46    10.0   .     S
V35     V42    10.0   .     S
V36     V42    10.0   .     S
V36     V32    10.0   1_655     S
V36     V45    10.0   1_565     S
V36     V41    10.0   1_565     S
V37     V47    10.0   1_455     S
V37     V43    10.0   .     S
V37     V39    10.0   .     S
V37     V41    10.0   1_455     S
V37     V32    10.0   1_545     S
V38     V48    10.0   1_455     S
V38     V44    10.0   .     S
V38     V40    10.0   .     S
V38     V42    10.0   1_455     S
V39     V43    10.0   .     S
V39     V45    10.0   .     S
V39     V41    10.0   .     S
V39     V34    10.0   1_545     S
V40     V44    10.0   .     S
V40     V46    10.0   .     S
V40     V42    10.0   .     S
V41     V45    10.0   .     S
V41     V47    10.0   .     S
V41     V37    10.0   1_655     S
V41     V36    10.0   1_545     S
V42     V46    10.0   .     S
V42     V48    10.0   .     S
V42     V38    10.0   1_655     S
V43     V47    10.0   1_455     S
V43     V45    10.0   .     S
V43     V26    10.0   1_545     S
V43     V34    10.0   1_545     S
V44     V48    10.0   1_455     S
V44     V46    10.0   .     S
V45     V47    10.0   .     S
V45     V28    10.0   1_545     S
V45     V36    10.0   1_545     S
V46     V48    10.0   .     S
V47     V37    10.0   1_655     S
V47     V43    10.0   1_655     S
V47     V30    10.0   1_545     S
V47     V32    10.0   1_645     S
V47     V13    10.0   1_655     S
V48     V38    10.0   1_655     S
V48     V44    10.0   1_655     S
V48     V31    10.0   1_655     S
V48     V14    10.0   1_655     S
