data_vcv
_audit_creation_date              2019-12-31
_audit_creation_method            'Pymatgen'
_symmetry_space_group_name_H-M    'P1'
_symmetry_Int_Tables_number       1
loop_
_symmetry_equiv_pos_as_xyz
  x,y,z
_cell_length_a                    24.3248
_cell_length_b                    36.391
_cell_length_c                    33.4174
_cell_angle_alpha                 90.0
_cell_angle_beta                 90.0
_cell_angle_gamma                 90.0
loop_
_atom_site_label
_atom_site_type_symbol
_atom_site_fract_x
_atom_site_fract_y
_atom_site_fract_z
V1     V     0.6647   0.4245   0.4645
V2     V     0.6647   0.4245   0.9645
V3     V     0.6647   0.9245   0.4645
V4     V     0.6647   0.9245   0.9645
V5     V     0.3353   0.4245   0.2855
V6     V     0.3353   0.4245   0.7855
V7     V     0.3353   0.9245   0.2855
V8     V     0.3353   0.9245   0.7855
V9     V     0.6647   0.0755   0.2145
V10     V     0.6647   0.0755   0.7145
V11     V     0.6647   0.5755   0.2145
V12     V     0.6647   0.5755   0.7145
V13     V     0.3353   0.0755   0.0355
V14     V     0.3353   0.0755   0.5355
V15     V     0.3353   0.5755   0.0355
V16     V     0.3353   0.5755   0.5355
V17     V     0.8353   0.1745   0.4645
V18     V     0.8353   0.1745   0.9645
V19     V     0.8353   0.6745   0.4645
V20     V     0.8353   0.6745   0.9645
V21     V     0.1647   0.1745   0.2855
V22     V     0.1647   0.1745   0.7855
V23     V     0.1647   0.6745   0.2855
V24     V     0.1647   0.6745   0.7855
V25     V     0.8353   0.3255   0.2145
V26     V     0.8353   0.3255   0.7145
V27     V     0.8353   0.8255   0.2145
V28     V     0.8353   0.8255   0.7145
V29     V     0.1647   0.3255   0.0355
V30     V     0.1647   0.3255   0.5355
V31     V     0.1647   0.8255   0.0355
V32     V     0.1647   0.8255   0.5355
loop_
_geom_bond_atom_site_label_1
_geom_bond_atom_site_label_2
_geom_bond_distance
_geom_bond_site_symmetry_2
_ccdc_geom_bond_type
V1     V25    10.0   .     S
V1     V17    10.0   .     S
V1     V26    10.0   .     S
V1     V16    10.0   .     S
V1     V12    10.0   .     S
V1     V5    10.0   .     S
V1     V11    10.0   .     S
V1     V19    10.0   .     S
V2     V26    10.0   .     S
V2     V18    10.0   .     S
V2     V25    10.0   1_556     S
V2     V15    10.0   1_556     S
V2     V11    10.0   1_556     S
V2     V6    10.0   .     S
V2     V12    10.0   .     S
V2     V20    10.0   .     S
V3     V27    10.0   .     S
V3     V19    10.0   .     S
V3     V28    10.0   .     S
V3     V14    10.0   1_565     S
V3     V10    10.0   1_565     S
V3     V7    10.0   .     S
V3     V9    10.0   1_565     S
V3     V17    10.0   1_565     S
V4     V28    10.0   .     S
V4     V20    10.0   .     S
V4     V27    10.0   1_556     S
V4     V13    10.0   1_566     S
V4     V9    10.0   1_566     S
V4     V8    10.0   .     S
V4     V10    10.0   1_565     S
V4     V18    10.0   1_565     S
V5     V16    10.0   .     S
V5     V11    10.0   .     S
V5     V15    10.0   .     S
V5     V30    10.0   .     S
V5     V29    10.0   .     S
V5     V21    10.0   .     S
V5     V23    10.0   .     S
V6     V15    10.0   1_556     S
V6     V12    10.0   .     S
V6     V16    10.0   .     S
V6     V29    10.0   1_556     S
V6     V30    10.0   .     S
V6     V22    10.0   .     S
V6     V24    10.0   .     S
V7     V14    10.0   1_565     S
V7     V9    10.0   1_565     S
V7     V13    10.0   1_565     S
V7     V32    10.0   .     S
V7     V31    10.0   .     S
V7     V23    10.0   .     S
V7     V21    10.0   1_565     S
V8     V13    10.0   1_566     S
V8     V10    10.0   1_565     S
V8     V14    10.0   1_565     S
V8     V31    10.0   1_556     S
V8     V32    10.0   .     S
V8     V24    10.0   .     S
V8     V22    10.0   1_565     S
V9     V27    10.0   1_545     S
V9     V4    10.0   1_544     S
V9     V13    10.0   .     S
V9     V7    10.0   1_545     S
V9     V3    10.0   1_545     S
V9     V17    10.0   .     S
V9     V25    10.0   .     S
V9     V18    10.0   1_554     S
V10     V28    10.0   1_545     S
V10     V3    10.0   1_545     S
V10     V14    10.0   .     S
V10     V8    10.0   1_545     S
V10     V4    10.0   1_545     S
V10     V18    10.0   .     S
V10     V26    10.0   .     S
V10     V17    10.0   .     S
V11     V25    10.0   .     S
V11     V2    10.0   1_554     S
V11     V15    10.0   .     S
V11     V19    10.0   .     S
V11     V27    10.0   .     S
V11     V20    10.0   1_554     S
V12     V26    10.0   .     S
V12     V16    10.0   .     S
V12     V20    10.0   .     S
V12     V28    10.0   .     S
V12     V19    10.0   .     S
V13     V4    10.0   1_544     S
V13     V8    10.0   1_544     S
V13     V7    10.0   1_545     S
V13     V31    10.0   1_545     S
V13     V22    10.0   1_554     S
V13     V29    10.0   .     S
V13     V21    10.0   .     S
V14     V3    10.0   1_545     S
V14     V7    10.0   1_545     S
V14     V8    10.0   1_545     S
V14     V32    10.0   1_545     S
V14     V21    10.0   .     S
V14     V30    10.0   .     S
V14     V22    10.0   .     S
V15     V2    10.0   1_554     S
V15     V6    10.0   1_554     S
V15     V29    10.0   .     S
V15     V24    10.0   1_554     S
V15     V31    10.0   .     S
V15     V23    10.0   .     S
V16     V30    10.0   .     S
V16     V23    10.0   .     S
V16     V32    10.0   .     S
V16     V24    10.0   .     S
V17     V21    10.0   1_655     S
V17     V30    10.0   1_655     S
V17     V26    10.0   .     S
V17     V25    10.0   .     S
V17     V3    10.0   1_545     S
V18     V22    10.0   1_655     S
V18     V29    10.0   1_656     S
V18     V25    10.0   1_556     S
V18     V26    10.0   .     S
V18     V9    10.0   1_556     S
V18     V4    10.0   1_545     S
V19     V23    10.0   1_655     S
V19     V32    10.0   1_655     S
V19     V28    10.0   .     S
V19     V27    10.0   .     S
V20     V24    10.0   1_655     S
V20     V31    10.0   1_656     S
V20     V27    10.0   1_556     S
V20     V28    10.0   .     S
V20     V11    10.0   1_556     S
V21     V7    10.0   1_545     S
V21     V17    10.0   1_455     S
V21     V30    10.0   .     S
V21     V25    10.0   1_455     S
V21     V29    10.0   .     S
V22     V13    10.0   1_556     S
V22     V8    10.0   1_545     S
V22     V18    10.0   1_455     S
V22     V29    10.0   1_556     S
V22     V26    10.0   1_455     S
V22     V30    10.0   .     S
V23     V19    10.0   1_455     S
V23     V32    10.0   .     S
V23     V27    10.0   1_455     S
V23     V31    10.0   .     S
V24     V15    10.0   1_556     S
V24     V20    10.0   1_455     S
V24     V31    10.0   1_556     S
V24     V28    10.0   1_455     S
V24     V32    10.0   .     S
V25     V2    10.0   1_554     S
V25     V18    10.0   1_554     S
V25     V29    10.0   1_655     S
V25     V21    10.0   1_655     S
V26     V30    10.0   1_655     S
V26     V22    10.0   1_655     S
V27     V9    10.0   1_565     S
V27     V4    10.0   1_554     S
V27     V20    10.0   1_554     S
V27     V31    10.0   1_655     S
V27     V23    10.0   1_655     S
V28     V10    10.0   1_565     S
V28     V32    10.0   1_655     S
V28     V24    10.0   1_655     S
V29     V6    10.0   1_554     S
V29     V18    10.0   1_454     S
V29     V22    10.0   1_554     S
V29     V25    10.0   1_455     S
V30     V17    10.0   1_455     S
V30     V26    10.0   1_455     S
V31     V8    10.0   1_554     S
V31     V13    10.0   1_565     S
V31     V20    10.0   1_454     S
V31     V24    10.0   1_554     S
V31     V27    10.0   1_455     S
V32     V14    10.0   1_565     S
V32     V19    10.0   1_455     S
V32     V28    10.0   1_455     S
