data_vcw
_audit_creation_date              2019-12-31
_audit_creation_method            'Pymatgen'
_symmetry_space_group_name_H-M    'P1'
_symmetry_Int_Tables_number       1
loop_
_symmetry_equiv_pos_as_xyz
  x,y,z
_cell_length_a                    39.5518
_cell_length_b                    32.3529
_cell_length_c                    30.0003
_cell_angle_alpha                 90.0
_cell_angle_beta                 90.0
_cell_angle_gamma                 90.0
loop_
_atom_site_label
_atom_site_type_symbol
_atom_site_fract_x
_atom_site_fract_y
_atom_site_fract_z
V1     V     0.1794   0.3838   0.0585
V2     V     0.1794   0.3838   0.3918
V3     V     0.1794   0.3838   0.7251
V4     V     0.6794   0.3838   0.0585
V5     V     0.6794   0.3838   0.3918
V6     V     0.6794   0.3838   0.7251
V7     V     0.0706   0.6162   0.2251
V8     V     0.0706   0.6162   0.5585
V9     V     0.0706   0.6162   0.8918
V10     V     0.5706   0.6162   0.2251
V11     V     0.5706   0.6162   0.5585
V12     V     0.5706   0.6162   0.8918
V13     V     0.0706   0.8838   0.0585
V14     V     0.0706   0.8838   0.3918
V15     V     0.0706   0.8838   0.7251
V16     V     0.5706   0.8838   0.0585
V17     V     0.5706   0.8838   0.3918
V18     V     0.5706   0.8838   0.7251
V19     V     0.1794   0.1162   0.2251
V20     V     0.1794   0.1162   0.5585
V21     V     0.1794   0.1162   0.8918
V22     V     0.6794   0.1162   0.2251
V23     V     0.6794   0.1162   0.5585
V24     V     0.6794   0.1162   0.8918
V25     V     0.4294   0.1162   0.2749
V26     V     0.4294   0.1162   0.6082
V27     V     0.4294   0.1162   0.9415
V28     V     0.9294   0.1162   0.2749
V29     V     0.9294   0.1162   0.6082
V30     V     0.9294   0.1162   0.9415
V31     V     0.3206   0.8838   0.1082
V32     V     0.3206   0.8838   0.4415
V33     V     0.3206   0.8838   0.7749
V34     V     0.8206   0.8838   0.1082
V35     V     0.8206   0.8838   0.4415
V36     V     0.8206   0.8838   0.7749
V37     V     0.4294   0.3838   0.1082
V38     V     0.4294   0.3838   0.4415
V39     V     0.4294   0.3838   0.7749
V40     V     0.9294   0.3838   0.1082
V41     V     0.9294   0.3838   0.4415
V42     V     0.9294   0.3838   0.7749
V43     V     0.3206   0.6162   0.2749
V44     V     0.3206   0.6162   0.6082
V45     V     0.3206   0.6162   0.9415
V46     V     0.8206   0.6162   0.2749
V47     V     0.8206   0.6162   0.6082
V48     V     0.8206   0.6162   0.9415
loop_
_geom_bond_atom_site_label_1
_geom_bond_atom_site_label_2
_geom_bond_distance
_geom_bond_site_symmetry_2
_ccdc_geom_bond_type
V1     V45    10.0   1_554     S
V1     V37    10.0   .     S
V1     V7    10.0   .     S
V1     V2    10.0   .     S
V1     V3    10.0   1_554     S
V1     V9    10.0   1_554     S
V1     V19    10.0   .     S
V1     V21    10.0   1_554     S
V1     V40    10.0   1_455     S
V2     V43    10.0   .     S
V2     V38    10.0   .     S
V2     V8    10.0   .     S
V2     V3    10.0   .     S
V2     V7    10.0   .     S
V2     V20    10.0   .     S
V2     V19    10.0   .     S
V2     V41    10.0   1_455     S
V3     V44    10.0   .     S
V3     V39    10.0   .     S
V3     V9    10.0   .     S
V3     V1    10.0   1_556     S
V3     V8    10.0   .     S
V3     V21    10.0   .     S
V3     V20    10.0   .     S
V3     V42    10.0   1_455     S
V4     V48    10.0   1_554     S
V4     V40    10.0   .     S
V4     V10    10.0   .     S
V4     V5    10.0   .     S
V4     V6    10.0   1_554     S
V4     V12    10.0   1_554     S
V4     V22    10.0   .     S
V4     V24    10.0   1_554     S
V4     V37    10.0   .     S
V5     V46    10.0   .     S
V5     V41    10.0   .     S
V5     V11    10.0   .     S
V5     V6    10.0   .     S
V5     V10    10.0   .     S
V5     V23    10.0   .     S
V5     V22    10.0   .     S
V5     V38    10.0   .     S
V6     V47    10.0   .     S
V6     V42    10.0   .     S
V6     V12    10.0   .     S
V6     V4    10.0   1_556     S
V6     V11    10.0   .     S
V6     V24    10.0   .     S
V6     V23    10.0   .     S
V6     V39    10.0   .     S
V7     V43    10.0   .     S
V7     V9    10.0   1_554     S
V7     V8    10.0   .     S
V7     V13    10.0   .     S
V7     V14    10.0   .     S
V7     V40    10.0   1_455     S
V7     V46    10.0   1_455     S
V8     V44    10.0   .     S
V8     V9    10.0   .     S
V8     V14    10.0   .     S
V8     V15    10.0   .     S
V8     V41    10.0   1_455     S
V8     V47    10.0   1_455     S
V9     V45    10.0   .     S
V9     V1    10.0   1_556     S
V9     V7    10.0   1_556     S
V9     V15    10.0   .     S
V9     V13    10.0   1_556     S
V9     V42    10.0   1_455     S
V9     V48    10.0   1_455     S
V10     V46    10.0   .     S
V10     V12    10.0   1_554     S
V10     V11    10.0   .     S
V10     V16    10.0   .     S
V10     V17    10.0   .     S
V10     V37    10.0   .     S
V10     V43    10.0   .     S
V11     V47    10.0   .     S
V11     V12    10.0   .     S
V11     V17    10.0   .     S
V11     V18    10.0   .     S
V11     V38    10.0   .     S
V11     V44    10.0   .     S
V12     V48    10.0   .     S
V12     V4    10.0   1_556     S
V12     V10    10.0   1_556     S
V12     V18    10.0   .     S
V12     V16    10.0   1_556     S
V12     V39    10.0   .     S
V12     V45    10.0   .     S
V13     V31    10.0   .     S
V13     V9    10.0   1_554     S
V13     V14    10.0   .     S
V13     V15    10.0   1_554     S
V13     V21    10.0   1_564     S
V13     V19    10.0   1_565     S
V13     V30    10.0   1_464     S
V13     V34    10.0   1_455     S
V14     V32    10.0   .     S
V14     V15    10.0   .     S
V14     V19    10.0   1_565     S
V14     V20    10.0   1_565     S
V14     V28    10.0   1_465     S
V14     V35    10.0   1_455     S
V15     V33    10.0   .     S
V15     V13    10.0   1_556     S
V15     V20    10.0   1_565     S
V15     V21    10.0   1_565     S
V15     V29    10.0   1_465     S
V15     V36    10.0   1_455     S
V16     V34    10.0   .     S
V16     V12    10.0   1_554     S
V16     V17    10.0   .     S
V16     V18    10.0   1_554     S
V16     V24    10.0   1_564     S
V16     V22    10.0   1_565     S
V16     V27    10.0   1_564     S
V16     V31    10.0   .     S
V17     V35    10.0   .     S
V17     V18    10.0   .     S
V17     V22    10.0   1_565     S
V17     V23    10.0   1_565     S
V17     V25    10.0   1_565     S
V17     V32    10.0   .     S
V18     V36    10.0   .     S
V18     V16    10.0   1_556     S
V18     V23    10.0   1_565     S
V18     V24    10.0   1_565     S
V18     V26    10.0   1_565     S
V18     V33    10.0   .     S
V19     V31    10.0   1_545     S
V19     V25    10.0   .     S
V19     V14    10.0   1_545     S
V19     V13    10.0   1_545     S
V19     V21    10.0   1_554     S
V19     V20    10.0   .     S
V19     V28    10.0   1_455     S
V20     V32    10.0   1_545     S
V20     V26    10.0   .     S
V20     V15    10.0   1_545     S
V20     V14    10.0   1_545     S
V20     V21    10.0   .     S
V20     V29    10.0   1_455     S
V21     V33    10.0   1_545     S
V21     V27    10.0   .     S
V21     V13    10.0   1_546     S
V21     V15    10.0   1_545     S
V21     V19    10.0   1_556     S
V21     V1    10.0   1_556     S
V21     V30    10.0   1_455     S
V22     V34    10.0   1_545     S
V22     V28    10.0   .     S
V22     V17    10.0   1_545     S
V22     V16    10.0   1_545     S
V22     V24    10.0   1_554     S
V22     V23    10.0   .     S
V22     V25    10.0   .     S
V23     V35    10.0   1_545     S
V23     V29    10.0   .     S
V23     V18    10.0   1_545     S
V23     V17    10.0   1_545     S
V23     V24    10.0   .     S
V23     V26    10.0   .     S
V24     V36    10.0   1_545     S
V24     V30    10.0   .     S
V24     V16    10.0   1_546     S
V24     V18    10.0   1_545     S
V24     V22    10.0   1_556     S
V24     V4    10.0   1_556     S
V24     V27    10.0   .     S
V25     V17    10.0   1_545     S
V25     V32    10.0   1_545     S
V25     V27    10.0   1_554     S
V25     V26    10.0   .     S
V25     V31    10.0   1_545     S
V25     V37    10.0   .     S
V25     V38    10.0   .     S
V26     V18    10.0   1_545     S
V26     V33    10.0   1_545     S
V26     V27    10.0   .     S
V26     V32    10.0   1_545     S
V26     V38    10.0   .     S
V26     V39    10.0   .     S
V27     V16    10.0   1_546     S
V27     V31    10.0   1_546     S
V27     V25    10.0   1_556     S
V27     V33    10.0   1_545     S
V27     V39    10.0   .     S
V27     V37    10.0   1_556     S
V28     V14    10.0   1_645     S
V28     V19    10.0   1_655     S
V28     V35    10.0   1_545     S
V28     V30    10.0   1_554     S
V28     V29    10.0   .     S
V28     V34    10.0   1_545     S
V28     V40    10.0   .     S
V28     V41    10.0   .     S
V29     V15    10.0   1_645     S
V29     V20    10.0   1_655     S
V29     V36    10.0   1_545     S
V29     V30    10.0   .     S
V29     V35    10.0   1_545     S
V29     V41    10.0   .     S
V29     V42    10.0   .     S
V30     V13    10.0   1_646     S
V30     V21    10.0   1_655     S
V30     V34    10.0   1_546     S
V30     V28    10.0   1_556     S
V30     V36    10.0   1_545     S
V30     V42    10.0   .     S
V30     V40    10.0   1_556     S
V31     V19    10.0   1_565     S
V31     V27    10.0   1_564     S
V31     V25    10.0   1_565     S
V31     V32    10.0   .     S
V31     V33    10.0   1_554     S
V31     V43    10.0   .     S
V31     V45    10.0   1_554     S
V32     V20    10.0   1_565     S
V32     V25    10.0   1_565     S
V32     V26    10.0   1_565     S
V32     V33    10.0   .     S
V32     V44    10.0   .     S
V32     V43    10.0   .     S
V33     V21    10.0   1_565     S
V33     V26    10.0   1_565     S
V33     V27    10.0   1_565     S
V33     V31    10.0   1_556     S
V33     V45    10.0   .     S
V33     V44    10.0   .     S
V34     V22    10.0   1_565     S
V34     V13    10.0   1_655     S
V34     V30    10.0   1_564     S
V34     V28    10.0   1_565     S
V34     V35    10.0   .     S
V34     V36    10.0   1_554     S
V34     V46    10.0   .     S
V34     V48    10.0   1_554     S
V35     V23    10.0   1_565     S
V35     V14    10.0   1_655     S
V35     V28    10.0   1_565     S
V35     V29    10.0   1_565     S
V35     V36    10.0   .     S
V35     V47    10.0   .     S
V35     V46    10.0   .     S
V36     V24    10.0   1_565     S
V36     V15    10.0   1_655     S
V36     V29    10.0   1_565     S
V36     V30    10.0   1_565     S
V36     V34    10.0   1_556     S
V36     V48    10.0   .     S
V36     V47    10.0   .     S
V37     V38    10.0   .     S
V37     V39    10.0   1_554     S
V37     V43    10.0   .     S
V37     V45    10.0   1_554     S
V37     V27    10.0   1_554     S
V38     V39    10.0   .     S
V38     V44    10.0   .     S
V38     V43    10.0   .     S
V39     V37    10.0   1_556     S
V39     V45    10.0   .     S
V39     V44    10.0   .     S
V40     V7    10.0   1_655     S
V40     V1    10.0   1_655     S
V40     V41    10.0   .     S
V40     V42    10.0   1_554     S
V40     V46    10.0   .     S
V40     V48    10.0   1_554     S
V40     V30    10.0   1_554     S
V41     V8    10.0   1_655     S
V41     V2    10.0   1_655     S
V41     V42    10.0   .     S
V41     V47    10.0   .     S
V41     V46    10.0   .     S
V42     V9    10.0   1_655     S
V42     V3    10.0   1_655     S
V42     V40    10.0   1_556     S
V42     V48    10.0   .     S
V42     V47    10.0   .     S
V43     V45    10.0   1_554     S
V43     V44    10.0   .     S
V44     V45    10.0   .     S
V45     V1    10.0   1_556     S
V45     V37    10.0   1_556     S
V45     V43    10.0   1_556     S
V45     V31    10.0   1_556     S
V46     V7    10.0   1_655     S
V46     V48    10.0   1_554     S
V46     V47    10.0   .     S
V47     V8    10.0   1_655     S
V47     V48    10.0   .     S
V48     V4    10.0   1_556     S
V48     V9    10.0   1_655     S
V48     V40    10.0   1_556     S
V48     V46    10.0   1_556     S
V48     V34    10.0   1_556     S
