data_vcx
_audit_creation_date              2019-12-31
_audit_creation_method            'Pymatgen'
_symmetry_space_group_name_H-M    'P1'
_symmetry_Int_Tables_number       1
loop_
_symmetry_equiv_pos_as_xyz
  x,y,z
_cell_length_a                    24.042
_cell_length_b                    31.9682
_cell_length_c                    31.587
_cell_angle_alpha                 90.0
_cell_angle_beta                 90.0
_cell_angle_gamma                 90.0
loop_
_atom_site_label
_atom_site_type_symbol
_atom_site_fract_x
_atom_site_fract_y
_atom_site_fract_z
V1     V     0.25   0.4022   0.8765
V2     V     0.25   0.9022   0.8765
V3     V     0.75   0.4022   0.8765
V4     V     0.75   0.9022   0.8765
V5     V     0.0   0.1521   0.8765
V6     V     0.0   0.6522   0.8765
V7     V     0.5   0.1521   0.8765
V8     V     0.5   0.6522   0.8765
V9     V     0.0   0.4022   0.6235
V10     V     0.0   0.9022   0.6235
V11     V     0.5   0.4022   0.6235
V12     V     0.5   0.9022   0.6235
V13     V     0.25   0.1521   0.6235
V14     V     0.25   0.6522   0.6235
V15     V     0.75   0.1521   0.6235
V16     V     0.75   0.6522   0.6235
V17     V     0.25   0.0979   0.1235
V18     V     0.25   0.5978   0.1235
V19     V     0.75   0.0979   0.1235
V20     V     0.75   0.5978   0.1235
V21     V     0.0   0.3478   0.1235
V22     V     0.0   0.8478   0.1235
V23     V     0.5   0.3478   0.1235
V24     V     0.5   0.8478   0.1235
V25     V     0.25   0.3478   0.3765
V26     V     0.25   0.8478   0.3765
V27     V     0.75   0.3478   0.3765
V28     V     0.75   0.8478   0.3765
V29     V     0.0   0.0979   0.3765
V30     V     0.0   0.5978   0.3765
V31     V     0.5   0.0979   0.3765
V32     V     0.5   0.5978   0.3765
loop_
_geom_bond_atom_site_label_1
_geom_bond_atom_site_label_2
_geom_bond_distance
_geom_bond_site_symmetry_2
_ccdc_geom_bond_type
V1     V21    10.0   1_556     S
V1     V18    10.0   1_556     S
V1     V23    10.0   1_556     S
V1     V7    10.0   .     S
V1     V5    10.0   .     S
V1     V8    10.0   .     S
V1     V6    10.0   .     S
V1     V9    10.0   .     S
V1     V11    10.0   .     S
V2     V22    10.0   1_556     S
V2     V17    10.0   1_566     S
V2     V24    10.0   1_556     S
V2     V8    10.0   .     S
V2     V6    10.0   .     S
V2     V7    10.0   1_565     S
V2     V5    10.0   1_565     S
V2     V10    10.0   .     S
V2     V12    10.0   .     S
V3     V23    10.0   1_556     S
V3     V20    10.0   1_556     S
V3     V21    10.0   1_656     S
V3     V5    10.0   1_655     S
V3     V7    10.0   .     S
V3     V6    10.0   1_655     S
V3     V8    10.0   .     S
V3     V11    10.0   .     S
V3     V9    10.0   1_655     S
V4     V24    10.0   1_556     S
V4     V19    10.0   1_566     S
V4     V22    10.0   1_656     S
V4     V6    10.0   1_655     S
V4     V8    10.0   .     S
V4     V5    10.0   1_665     S
V4     V7    10.0   1_565     S
V4     V12    10.0   .     S
V4     V10    10.0   1_655     S
V5     V19    10.0   1_456     S
V5     V17    10.0   1_556     S
V5     V21    10.0   1_556     S
V5     V3    10.0   1_455     S
V5     V4    10.0   1_445     S
V5     V2    10.0   1_545     S
V5     V15    10.0   1_455     S
V5     V13    10.0   .     S
V6     V20    10.0   1_456     S
V6     V18    10.0   1_556     S
V6     V22    10.0   1_556     S
V6     V4    10.0   1_455     S
V6     V3    10.0   1_455     S
V6     V16    10.0   1_455     S
V6     V14    10.0   .     S
V7     V17    10.0   1_556     S
V7     V19    10.0   1_556     S
V7     V23    10.0   1_556     S
V7     V2    10.0   1_545     S
V7     V4    10.0   1_545     S
V7     V13    10.0   .     S
V7     V15    10.0   .     S
V8     V18    10.0   1_556     S
V8     V20    10.0   1_556     S
V8     V24    10.0   1_556     S
V8     V14    10.0   .     S
V8     V16    10.0   .     S
V9     V15    10.0   1_455     S
V9     V13    10.0   .     S
V9     V16    10.0   1_455     S
V9     V14    10.0   .     S
V9     V3    10.0   1_455     S
V9     V25    10.0   .     S
V9     V30    10.0   .     S
V9     V27    10.0   1_455     S
V10     V16    10.0   1_455     S
V10     V14    10.0   .     S
V10     V15    10.0   1_465     S
V10     V13    10.0   1_565     S
V10     V4    10.0   1_455     S
V10     V26    10.0   .     S
V10     V29    10.0   1_565     S
V10     V28    10.0   1_455     S
V11     V13    10.0   .     S
V11     V15    10.0   .     S
V11     V14    10.0   .     S
V11     V16    10.0   .     S
V11     V27    10.0   .     S
V11     V32    10.0   .     S
V11     V25    10.0   .     S
V12     V14    10.0   .     S
V12     V16    10.0   .     S
V12     V13    10.0   1_565     S
V12     V15    10.0   1_565     S
V12     V28    10.0   .     S
V12     V31    10.0   1_565     S
V12     V26    10.0   .     S
V13     V12    10.0   1_545     S
V13     V10    10.0   1_545     S
V13     V31    10.0   .     S
V13     V25    10.0   .     S
V13     V29    10.0   .     S
V14     V32    10.0   .     S
V14     V26    10.0   .     S
V14     V30    10.0   .     S
V15     V9    10.0   1_655     S
V15     V10    10.0   1_645     S
V15     V12    10.0   1_545     S
V15     V5    10.0   1_655     S
V15     V29    10.0   1_655     S
V15     V27    10.0   .     S
V15     V31    10.0   .     S
V16     V10    10.0   1_655     S
V16     V9    10.0   1_655     S
V16     V6    10.0   1_655     S
V16     V30    10.0   1_655     S
V16     V28    10.0   .     S
V16     V32    10.0   .     S
V17     V2    10.0   1_544     S
V17     V7    10.0   1_554     S
V17     V5    10.0   1_554     S
V17     V23    10.0   .     S
V17     V22    10.0   1_545     S
V17     V24    10.0   1_545     S
V17     V21    10.0   .     S
V17     V31    10.0   .     S
V17     V29    10.0   .     S
V18     V1    10.0   1_554     S
V18     V8    10.0   1_554     S
V18     V6    10.0   1_554     S
V18     V24    10.0   .     S
V18     V21    10.0   .     S
V18     V23    10.0   .     S
V18     V22    10.0   .     S
V18     V32    10.0   .     S
V18     V30    10.0   .     S
V19     V4    10.0   1_544     S
V19     V5    10.0   1_654     S
V19     V7    10.0   1_554     S
V19     V21    10.0   1_655     S
V19     V24    10.0   1_545     S
V19     V22    10.0   1_645     S
V19     V23    10.0   .     S
V19     V29    10.0   1_655     S
V19     V31    10.0   .     S
V20     V3    10.0   1_554     S
V20     V6    10.0   1_654     S
V20     V8    10.0   1_554     S
V20     V22    10.0   1_655     S
V20     V23    10.0   .     S
V20     V21    10.0   1_655     S
V20     V24    10.0   .     S
V20     V30    10.0   1_655     S
V20     V32    10.0   .     S
V21     V1    10.0   1_554     S
V21     V3    10.0   1_454     S
V21     V5    10.0   1_554     S
V21     V19    10.0   1_455     S
V21     V20    10.0   1_455     S
V21     V27    10.0   1_455     S
V21     V25    10.0   .     S
V22     V2    10.0   1_554     S
V22     V4    10.0   1_454     S
V22     V6    10.0   1_554     S
V22     V20    10.0   1_455     S
V22     V17    10.0   1_565     S
V22     V19    10.0   1_465     S
V22     V28    10.0   1_455     S
V22     V26    10.0   .     S
V23     V3    10.0   1_554     S
V23     V1    10.0   1_554     S
V23     V7    10.0   1_554     S
V23     V25    10.0   .     S
V23     V27    10.0   .     S
V24     V4    10.0   1_554     S
V24     V2    10.0   1_554     S
V24     V8    10.0   1_554     S
V24     V19    10.0   1_565     S
V24     V17    10.0   1_565     S
V24     V26    10.0   .     S
V24     V28    10.0   .     S
V25     V31    10.0   .     S
V25     V30    10.0   .     S
V25     V32    10.0   .     S
V25     V29    10.0   .     S
V26     V32    10.0   .     S
V26     V29    10.0   1_565     S
V26     V31    10.0   1_565     S
V26     V30    10.0   .     S
V27     V9    10.0   1_655     S
V27     V29    10.0   1_655     S
V27     V32    10.0   .     S
V27     V30    10.0   1_655     S
V27     V31    10.0   .     S
V27     V21    10.0   1_655     S
V28     V10    10.0   1_655     S
V28     V30    10.0   1_655     S
V28     V31    10.0   1_565     S
V28     V29    10.0   1_665     S
V28     V32    10.0   .     S
V28     V22    10.0   1_655     S
V29     V15    10.0   1_455     S
V29     V10    10.0   1_545     S
V29     V19    10.0   1_455     S
V29     V27    10.0   1_455     S
V29     V26    10.0   1_545     S
V29     V28    10.0   1_445     S
V30     V16    10.0   1_455     S
V30     V20    10.0   1_455     S
V30     V28    10.0   1_455     S
V30     V27    10.0   1_455     S
V31     V12    10.0   1_545     S
V31     V28    10.0   1_545     S
V31     V26    10.0   1_545     S
