data_vcy
_audit_creation_date              2019-12-31
_audit_creation_method            'Pymatgen'
_symmetry_space_group_name_H-M    'P1'
_symmetry_Int_Tables_number       1
loop_
_symmetry_equiv_pos_as_xyz
  x,y,z
_cell_length_a                    38.3338
_cell_length_b                    38.548
_cell_length_c                    34.1954
_cell_angle_alpha                 90.0
_cell_angle_beta                 90.0
_cell_angle_gamma                 90.0
loop_
_atom_site_label
_atom_site_type_symbol
_atom_site_fract_x
_atom_site_fract_y
_atom_site_fract_z
V1     V     0.3402   0.1923   0.4168
V2     V     0.3402   0.1923   0.9168
V3     V     0.3402   0.6923   0.4168
V4     V     0.3402   0.6923   0.9168
V5     V     0.8402   0.1923   0.4168
V6     V     0.8402   0.1923   0.9168
V7     V     0.8402   0.6923   0.4168
V8     V     0.8402   0.6923   0.9168
V9     V     0.4098   0.4423   0.4168
V10     V     0.4098   0.4423   0.9168
V11     V     0.4098   0.9423   0.4168
V12     V     0.4098   0.9423   0.9168
V13     V     0.9098   0.4423   0.4168
V14     V     0.9098   0.4423   0.9168
V15     V     0.9098   0.9423   0.4168
V16     V     0.9098   0.9423   0.9168
V17     V     0.1598   0.4423   0.3332
V18     V     0.1598   0.4423   0.8332
V19     V     0.1598   0.9423   0.3332
V20     V     0.1598   0.9423   0.8332
V21     V     0.6598   0.4423   0.3332
V22     V     0.6598   0.4423   0.8332
V23     V     0.6598   0.9423   0.3332
V24     V     0.6598   0.9423   0.8332
V25     V     0.0902   0.1923   0.3332
V26     V     0.0902   0.1923   0.8332
V27     V     0.0902   0.6923   0.3332
V28     V     0.0902   0.6923   0.8332
V29     V     0.5902   0.1923   0.3332
V30     V     0.5902   0.1923   0.8332
V31     V     0.5902   0.6923   0.3332
V32     V     0.5902   0.6923   0.8332
V33     V     0.4098   0.3077   0.1668
V34     V     0.4098   0.3077   0.6668
V35     V     0.4098   0.8077   0.1668
V36     V     0.4098   0.8077   0.6668
V37     V     0.9098   0.3077   0.1668
V38     V     0.9098   0.3077   0.6668
V39     V     0.9098   0.8077   0.1668
V40     V     0.9098   0.8077   0.6668
V41     V     0.3402   0.0577   0.1668
V42     V     0.3402   0.0577   0.6668
V43     V     0.3402   0.5577   0.1668
V44     V     0.3402   0.5577   0.6668
V45     V     0.8402   0.0577   0.1668
V46     V     0.8402   0.0577   0.6668
V47     V     0.8402   0.5577   0.1668
V48     V     0.8402   0.5577   0.6668
V49     V     0.0902   0.0577   0.0832
V50     V     0.0902   0.0577   0.5832
V51     V     0.0902   0.5577   0.0832
V52     V     0.0902   0.5577   0.5832
V53     V     0.5902   0.0577   0.0832
V54     V     0.5902   0.0577   0.5832
V55     V     0.5902   0.5577   0.0832
V56     V     0.5902   0.5577   0.5832
V57     V     0.1598   0.3077   0.0832
V58     V     0.1598   0.3077   0.5832
V59     V     0.1598   0.8077   0.0832
V60     V     0.1598   0.8077   0.5832
V61     V     0.6598   0.3077   0.0832
V62     V     0.6598   0.3077   0.5832
V63     V     0.6598   0.8077   0.0832
V64     V     0.6598   0.8077   0.5832
loop_
_geom_bond_atom_site_label_1
_geom_bond_atom_site_label_2
_geom_bond_distance
_geom_bond_site_symmetry_2
_ccdc_geom_bond_type
V1     V34    10.0   .     S
V1     V42    10.0   .     S
V1     V58    10.0   .     S
V1     V9    10.0   .     S
V1     V11    10.0   1_545     S
V1     V29    10.0   .     S
V1     V25    10.0   .     S
V1     V33    10.0   .     S
V1     V41    10.0   .     S
V2     V33    10.0   1_556     S
V2     V41    10.0   1_556     S
V2     V57    10.0   1_556     S
V2     V10    10.0   .     S
V2     V12    10.0   1_545     S
V2     V30    10.0   .     S
V2     V26    10.0   .     S
V2     V34    10.0   .     S
V2     V42    10.0   .     S
V3     V36    10.0   .     S
V3     V44    10.0   .     S
V3     V60    10.0   .     S
V3     V11    10.0   .     S
V3     V9    10.0   .     S
V3     V31    10.0   .     S
V3     V27    10.0   .     S
V3     V35    10.0   .     S
V3     V43    10.0   .     S
V4     V35    10.0   1_556     S
V4     V43    10.0   1_556     S
V4     V59    10.0   1_556     S
V4     V12    10.0   .     S
V4     V10    10.0   .     S
V4     V32    10.0   .     S
V4     V28    10.0   .     S
V4     V36    10.0   .     S
V4     V44    10.0   .     S
V5     V38    10.0   .     S
V5     V46    10.0   .     S
V5     V62    10.0   .     S
V5     V13    10.0   .     S
V5     V15    10.0   1_545     S
V5     V25    10.0   1_655     S
V5     V29    10.0   .     S
V5     V37    10.0   .     S
V5     V45    10.0   .     S
V6     V37    10.0   1_556     S
V6     V45    10.0   1_556     S
V6     V61    10.0   1_556     S
V6     V14    10.0   .     S
V6     V16    10.0   1_545     S
V6     V26    10.0   1_655     S
V6     V30    10.0   .     S
V6     V38    10.0   .     S
V6     V46    10.0   .     S
V7     V40    10.0   .     S
V7     V48    10.0   .     S
V7     V64    10.0   .     S
V7     V15    10.0   .     S
V7     V13    10.0   .     S
V7     V27    10.0   1_655     S
V7     V31    10.0   .     S
V7     V39    10.0   .     S
V7     V47    10.0   .     S
V8     V39    10.0   1_556     S
V8     V47    10.0   1_556     S
V8     V63    10.0   1_556     S
V8     V16    10.0   .     S
V8     V14    10.0   .     S
V8     V28    10.0   1_655     S
V8     V32    10.0   .     S
V8     V40    10.0   .     S
V8     V48    10.0   .     S
V9     V44    10.0   .     S
V9     V34    10.0   .     S
V9     V56    10.0   .     S
V9     V21    10.0   .     S
V9     V17    10.0   .     S
V9     V43    10.0   .     S
V9     V33    10.0   .     S
V10     V43    10.0   1_556     S
V10     V33    10.0   1_556     S
V10     V55    10.0   1_556     S
V10     V22    10.0   .     S
V10     V18    10.0   .     S
V10     V44    10.0   .     S
V10     V34    10.0   .     S
V11     V42    10.0   1_565     S
V11     V36    10.0   .     S
V11     V54    10.0   1_565     S
V11     V1    10.0   1_565     S
V11     V23    10.0   .     S
V11     V19    10.0   .     S
V11     V41    10.0   1_565     S
V11     V35    10.0   .     S
V12     V41    10.0   1_566     S
V12     V35    10.0   1_556     S
V12     V53    10.0   1_566     S
V12     V2    10.0   1_565     S
V12     V24    10.0   .     S
V12     V20    10.0   .     S
V12     V42    10.0   1_565     S
V12     V36    10.0   .     S
V13     V48    10.0   .     S
V13     V38    10.0   .     S
V13     V52    10.0   1_655     S
V13     V17    10.0   1_655     S
V13     V21    10.0   .     S
V13     V47    10.0   .     S
V13     V37    10.0   .     S
V14     V47    10.0   1_556     S
V14     V37    10.0   1_556     S
V14     V51    10.0   1_656     S
V14     V18    10.0   1_655     S
V14     V22    10.0   .     S
V14     V48    10.0   .     S
V14     V38    10.0   .     S
V15     V46    10.0   1_565     S
V15     V40    10.0   .     S
V15     V50    10.0   1_665     S
V15     V5    10.0   1_565     S
V15     V19    10.0   1_655     S
V15     V23    10.0   .     S
V15     V45    10.0   1_565     S
V15     V39    10.0   .     S
V16     V45    10.0   1_566     S
V16     V39    10.0   1_556     S
V16     V49    10.0   1_666     S
V16     V6    10.0   1_565     S
V16     V20    10.0   1_655     S
V16     V24    10.0   .     S
V16     V46    10.0   1_565     S
V16     V40    10.0   .     S
V17     V52    10.0   .     S
V17     V58    10.0   .     S
V17     V27    10.0   .     S
V17     V25    10.0   .     S
V17     V13    10.0   1_455     S
V17     V51    10.0   .     S
V17     V57    10.0   .     S
V17     V43    10.0   .     S
V18     V51    10.0   1_556     S
V18     V57    10.0   1_556     S
V18     V28    10.0   .     S
V18     V26    10.0   .     S
V18     V14    10.0   1_455     S
V18     V52    10.0   .     S
V18     V58    10.0   .     S
V18     V44    10.0   .     S
V19     V50    10.0   1_565     S
V19     V60    10.0   .     S
V19     V25    10.0   1_565     S
V19     V27    10.0   .     S
V19     V15    10.0   1_455     S
V19     V49    10.0   1_565     S
V19     V59    10.0   .     S
V19     V41    10.0   1_565     S
V20     V49    10.0   1_566     S
V20     V59    10.0   1_556     S
V20     V26    10.0   1_565     S
V20     V28    10.0   .     S
V20     V16    10.0   1_455     S
V20     V50    10.0   1_565     S
V20     V60    10.0   .     S
V20     V42    10.0   1_565     S
V21     V56    10.0   .     S
V21     V62    10.0   .     S
V21     V31    10.0   .     S
V21     V29    10.0   .     S
V21     V55    10.0   .     S
V21     V61    10.0   .     S
V21     V47    10.0   .     S
V22     V55    10.0   1_556     S
V22     V61    10.0   1_556     S
V22     V32    10.0   .     S
V22     V30    10.0   .     S
V22     V56    10.0   .     S
V22     V62    10.0   .     S
V22     V48    10.0   .     S
V23     V54    10.0   1_565     S
V23     V64    10.0   .     S
V23     V29    10.0   1_565     S
V23     V31    10.0   .     S
V23     V53    10.0   1_565     S
V23     V63    10.0   .     S
V23     V45    10.0   1_565     S
V24     V53    10.0   1_566     S
V24     V63    10.0   1_556     S
V24     V30    10.0   1_565     S
V24     V32    10.0   .     S
V24     V54    10.0   1_565     S
V24     V64    10.0   .     S
V24     V46    10.0   1_565     S
V25     V50    10.0   .     S
V25     V58    10.0   .     S
V25     V5    10.0   1_455     S
V25     V19    10.0   1_545     S
V25     V57    10.0   .     S
V25     V49    10.0   .     S
V25     V37    10.0   1_455     S
V26     V49    10.0   1_556     S
V26     V57    10.0   1_556     S
V26     V6    10.0   1_455     S
V26     V20    10.0   1_545     S
V26     V58    10.0   .     S
V26     V50    10.0   .     S
V26     V38    10.0   1_455     S
V27     V52    10.0   .     S
V27     V60    10.0   .     S
V27     V7    10.0   1_455     S
V27     V59    10.0   .     S
V27     V51    10.0   .     S
V27     V39    10.0   1_455     S
V28     V51    10.0   1_556     S
V28     V59    10.0   1_556     S
V28     V8    10.0   1_455     S
V28     V60    10.0   .     S
V28     V52    10.0   .     S
V28     V40    10.0   1_455     S
V29     V54    10.0   .     S
V29     V62    10.0   .     S
V29     V23    10.0   1_545     S
V29     V61    10.0   .     S
V29     V53    10.0   .     S
V29     V33    10.0   .     S
V30     V53    10.0   1_556     S
V30     V61    10.0   1_556     S
V30     V24    10.0   1_545     S
V30     V62    10.0   .     S
V30     V54    10.0   .     S
V30     V34    10.0   .     S
V31     V56    10.0   .     S
V31     V64    10.0   .     S
V31     V63    10.0   .     S
V31     V55    10.0   .     S
V31     V35    10.0   .     S
V32     V55    10.0   1_556     S
V32     V63    10.0   1_556     S
V32     V64    10.0   .     S
V32     V56    10.0   .     S
V32     V36    10.0   .     S
V33     V2    10.0   1_554     S
V33     V10    10.0   1_554     S
V33     V41    10.0   .     S
V33     V43    10.0   .     S
V33     V57    10.0   .     S
V33     V61    10.0   .     S
V34     V42    10.0   .     S
V34     V44    10.0   .     S
V34     V58    10.0   .     S
V34     V62    10.0   .     S
V35     V4    10.0   1_554     S
V35     V12    10.0   1_554     S
V35     V43    10.0   .     S
V35     V41    10.0   1_565     S
V35     V59    10.0   .     S
V35     V63    10.0   .     S
V36     V44    10.0   .     S
V36     V42    10.0   1_565     S
V36     V60    10.0   .     S
V36     V64    10.0   .     S
V37     V6    10.0   1_554     S
V37     V14    10.0   1_554     S
V37     V45    10.0   .     S
V37     V47    10.0   .     S
V37     V61    10.0   .     S
V37     V57    10.0   1_655     S
V37     V25    10.0   1_655     S
V38     V46    10.0   .     S
V38     V48    10.0   .     S
V38     V62    10.0   .     S
V38     V58    10.0   1_655     S
V38     V26    10.0   1_655     S
V39     V8    10.0   1_554     S
V39     V16    10.0   1_554     S
V39     V47    10.0   .     S
V39     V45    10.0   1_565     S
V39     V63    10.0   .     S
V39     V59    10.0   1_655     S
V39     V27    10.0   1_655     S
V40     V48    10.0   .     S
V40     V46    10.0   1_565     S
V40     V64    10.0   .     S
V40     V60    10.0   1_655     S
V40     V28    10.0   1_655     S
V41     V2    10.0   1_554     S
V41     V12    10.0   1_544     S
V41     V35    10.0   1_545     S
V41     V53    10.0   .     S
V41     V49    10.0   .     S
V41     V11    10.0   1_545     S
V41     V19    10.0   1_545     S
V42     V11    10.0   1_545     S
V42     V36    10.0   1_545     S
V42     V54    10.0   .     S
V42     V50    10.0   .     S
V42     V12    10.0   1_545     S
V42     V20    10.0   1_545     S
V43     V4    10.0   1_554     S
V43     V10    10.0   1_554     S
V43     V55    10.0   .     S
V43     V51    10.0   .     S
V44     V56    10.0   .     S
V44     V52    10.0   .     S
V45     V6    10.0   1_554     S
V45     V16    10.0   1_544     S
V45     V39    10.0   1_545     S
V45     V49    10.0   1_655     S
V45     V53    10.0   .     S
V45     V15    10.0   1_545     S
V45     V23    10.0   1_545     S
V46     V15    10.0   1_545     S
V46     V40    10.0   1_545     S
V46     V50    10.0   1_655     S
V46     V54    10.0   .     S
V46     V16    10.0   1_545     S
V46     V24    10.0   1_545     S
V47     V8    10.0   1_554     S
V47     V14    10.0   1_554     S
V47     V51    10.0   1_655     S
V47     V55    10.0   .     S
V48     V52    10.0   1_655     S
V48     V56    10.0   .     S
V49     V20    10.0   1_544     S
V49     V26    10.0   1_554     S
V49     V16    10.0   1_444     S
V49     V45    10.0   1_455     S
V49     V59    10.0   1_545     S
V49     V57    10.0   .     S
V49     V19    10.0   1_545     S
V50     V19    10.0   1_545     S
V50     V15    10.0   1_445     S
V50     V46    10.0   1_455     S
V50     V60    10.0   1_545     S
V50     V58    10.0   .     S
V50     V20    10.0   1_545     S
V51     V18    10.0   1_554     S
V51     V28    10.0   1_554     S
V51     V14    10.0   1_454     S
V51     V47    10.0   1_455     S
V51     V57    10.0   .     S
V51     V59    10.0   .     S
V52     V13    10.0   1_455     S
V52     V48    10.0   1_455     S
V52     V58    10.0   .     S
V52     V60    10.0   .     S
V53     V24    10.0   1_544     S
V53     V30    10.0   1_554     S
V53     V12    10.0   1_544     S
V53     V63    10.0   1_545     S
V53     V61    10.0   .     S
V53     V23    10.0   1_545     S
V54     V23    10.0   1_545     S
V54     V11    10.0   1_545     S
V54     V64    10.0   1_545     S
V54     V62    10.0   .     S
V54     V24    10.0   1_545     S
V55     V22    10.0   1_554     S
V55     V32    10.0   1_554     S
V55     V10    10.0   1_554     S
V55     V61    10.0   .     S
V55     V63    10.0   .     S
V56     V62    10.0   .     S
V56     V64    10.0   .     S
V57     V26    10.0   1_554     S
V57     V18    10.0   1_554     S
V57     V2    10.0   1_554     S
V57     V37    10.0   1_455     S
V58     V38    10.0   1_455     S
V59     V28    10.0   1_554     S
V59     V20    10.0   1_554     S
V59     V4    10.0   1_554     S
V59     V49    10.0   1_565     S
V59     V39    10.0   1_455     S
V60     V50    10.0   1_565     S
V60     V40    10.0   1_455     S
V61     V30    10.0   1_554     S
V61     V22    10.0   1_554     S
V61     V6    10.0   1_554     S
V63     V32    10.0   1_554     S
V63     V24    10.0   1_554     S
V63     V8    10.0   1_554     S
V63     V53    10.0   1_565     S
V64     V54    10.0   1_565     S
