data_vcz
_audit_creation_date              2019-12-31
_audit_creation_method            'Pymatgen'
_symmetry_space_group_name_H-M    'P1'
_symmetry_Int_Tables_number       1
loop_
_symmetry_equiv_pos_as_xyz
  x,y,z
_cell_length_a                    24.181
_cell_length_b                    23.547
_cell_length_c                    29.013
_cell_angle_alpha                 90.0
_cell_angle_beta                 90.0
_cell_angle_gamma                 90.0
loop_
_atom_site_label
_atom_site_type_symbol
_atom_site_fract_x
_atom_site_fract_y
_atom_site_fract_z
V1     V     0.8502   0.1462   0.4938
V2     V     0.8502   0.1462   0.9938
V3     V     0.6498   0.3538   0.2438
V4     V     0.6498   0.3538   0.7438
V5     V     0.1498   0.1462   0.2562
V6     V     0.1498   0.1462   0.7562
V7     V     0.3502   0.3538   0.0062
V8     V     0.3502   0.3538   0.5062
V9     V     0.3502   0.6462   0.2562
V10     V     0.3502   0.6462   0.7562
V11     V     0.1498   0.8538   0.0062
V12     V     0.1498   0.8538   0.5062
V13     V     0.6498   0.6462   0.4938
V14     V     0.6498   0.6462   0.9938
V15     V     0.8502   0.8538   0.2438
V16     V     0.8502   0.8538   0.7438
loop_
_geom_bond_atom_site_label_1
_geom_bond_atom_site_label_2
_geom_bond_distance
_geom_bond_site_symmetry_2
_ccdc_geom_bond_type
V1     V3    10.0   .     S
V1     V4    10.0   .     S
V1     V5    10.0   1_655     S
V1     V12    10.0   1_645     S
V1     V16    10.0   1_545     S
V1     V15    10.0   1_545     S
V2     V4    10.0   .     S
V2     V3    10.0   1_556     S
V2     V6    10.0   1_655     S
V2     V11    10.0   1_646     S
V2     V15    10.0   1_546     S
V2     V16    10.0   1_545     S
V3     V2    10.0   1_554     S
V3     V7    10.0   .     S
V3     V9    10.0   .     S
V3     V13    10.0   .     S
V3     V14    10.0   1_554     S
V4     V8    10.0   .     S
V4     V10    10.0   .     S
V4     V14    10.0   .     S
V4     V13    10.0   .     S
V5     V8    10.0   .     S
V5     V7    10.0   .     S
V5     V1    10.0   1_455     S
V5     V12    10.0   1_545     S
V5     V15    10.0   1_445     S
V5     V11    10.0   1_545     S
V6     V7    10.0   1_556     S
V6     V8    10.0   .     S
V6     V2    10.0   1_455     S
V6     V11    10.0   1_546     S
V6     V16    10.0   1_445     S
V6     V12    10.0   1_545     S
V7     V6    10.0   1_554     S
V7     V9    10.0   .     S
V7     V14    10.0   1_554     S
V7     V10    10.0   1_554     S
V8     V10    10.0   .     S
V8     V13    10.0   .     S
V8     V9    10.0   .     S
V9     V12    10.0   .     S
V9     V11    10.0   .     S
V9     V13    10.0   .     S
V10     V7    10.0   1_556     S
V10     V11    10.0   1_556     S
V10     V12    10.0   .     S
V10     V14    10.0   .     S
V11     V2    10.0   1_464     S
V11     V6    10.0   1_564     S
V11     V5    10.0   1_565     S
V11     V10    10.0   1_554     S
V11     V15    10.0   1_455     S
V12     V1    10.0   1_465     S
V12     V5    10.0   1_565     S
V12     V6    10.0   1_565     S
V12     V16    10.0   1_455     S
V13     V15    10.0   .     S
V13     V16    10.0   .     S
V14     V7    10.0   1_556     S
V14     V3    10.0   1_556     S
V14     V16    10.0   .     S
V14     V15    10.0   1_556     S
V15     V2    10.0   1_564     S
V15     V5    10.0   1_665     S
V15     V1    10.0   1_565     S
V15     V14    10.0   1_554     S
V15     V11    10.0   1_655     S
V16     V1    10.0   1_565     S
V16     V6    10.0   1_665     S
V16     V2    10.0   1_565     S
V16     V12    10.0   1_655     S
