data_vdb
_audit_creation_date              2019-12-31
_audit_creation_method            'Pymatgen'
_symmetry_space_group_name_H-M    'P1'
_symmetry_Int_Tables_number       1
loop_
_symmetry_equiv_pos_as_xyz
  x,y,z
_cell_length_a                    36.914
_cell_length_b                    33.6712
_cell_length_c                    57.2203
_cell_angle_alpha                 90.0
_cell_angle_beta                 90.0
_cell_angle_gamma                 90.0
loop_
_atom_site_label
_atom_site_type_symbol
_atom_site_fract_x
_atom_site_fract_y
_atom_site_fract_z
V1     V     0.0917   0.98   0.4368
V2     V     0.5917   0.98   0.4368
V3     V     0.4083   0.02   0.5632
V4     V     0.9083   0.02   0.5632
V5     V     0.2167   0.23   0.5632
V6     V     0.7167   0.23   0.5632
V7     V     0.0333   0.27   0.4368
V8     V     0.5333   0.27   0.4368
V9     V     0.1583   0.52   0.5632
V10     V     0.6583   0.52   0.5632
V11     V     0.3417   0.48   0.4368
V12     V     0.8417   0.48   0.4368
V13     V     0.4667   0.73   0.5632
V14     V     0.9667   0.73   0.5632
V15     V     0.2833   0.77   0.4368
V16     V     0.7833   0.77   0.4368
V17     V     0.4667   0.02   0.1868
V18     V     0.9667   0.02   0.1868
V19     V     0.2833   0.98   0.3132
V20     V     0.7833   0.98   0.3132
V21     V     0.1583   0.23   0.1868
V22     V     0.6583   0.23   0.1868
V23     V     0.3417   0.27   0.3132
V24     V     0.8417   0.27   0.3132
V25     V     0.2167   0.52   0.1868
V26     V     0.7167   0.52   0.1868
V27     V     0.0333   0.48   0.3132
V28     V     0.5333   0.48   0.3132
V29     V     0.4083   0.73   0.1868
V30     V     0.9083   0.73   0.1868
V31     V     0.0917   0.77   0.3132
V32     V     0.5917   0.77   0.3132
V33     V     0.2167   0.02   0.6868
V34     V     0.7167   0.02   0.6868
V35     V     0.0333   0.98   0.8132
V36     V     0.5333   0.98   0.8132
V37     V     0.4083   0.23   0.6868
V38     V     0.9083   0.23   0.6868
V39     V     0.0917   0.27   0.8132
V40     V     0.5917   0.27   0.8132
V41     V     0.4667   0.52   0.6868
V42     V     0.9667   0.52   0.6868
V43     V     0.2833   0.48   0.8132
V44     V     0.7833   0.48   0.8132
V45     V     0.1583   0.73   0.6868
V46     V     0.6583   0.73   0.6868
V47     V     0.3417   0.77   0.8132
V48     V     0.8417   0.77   0.8132
V49     V     0.1583   0.02   0.0632
V50     V     0.6583   0.02   0.0632
V51     V     0.3417   0.98   0.9368
V52     V     0.8417   0.98   0.9368
V53     V     0.2167   0.73   0.0632
V54     V     0.7167   0.73   0.0632
V55     V     0.0333   0.77   0.9368
V56     V     0.5333   0.77   0.9368
V57     V     0.4083   0.52   0.0632
V58     V     0.9083   0.52   0.0632
V59     V     0.0917   0.48   0.9368
V60     V     0.5917   0.48   0.9368
V61     V     0.4667   0.23   0.0632
V62     V     0.9667   0.23   0.0632
V63     V     0.2833   0.27   0.9368
V64     V     0.7833   0.27   0.9368
loop_
_geom_bond_atom_site_label_1
_geom_bond_atom_site_label_2
_geom_bond_distance
_geom_bond_site_symmetry_2
_ccdc_geom_bond_type
V1     V4    10.0   1_465     S
V1     V15    10.0   .     S
V1     V31    10.0   .     S
V1     V19    10.0   .     S
V1     V7    10.0   1_565     S
V2     V3    10.0   1_565     S
V2     V16    10.0   .     S
V2     V32    10.0   .     S
V2     V20    10.0   .     S
V2     V8    10.0   1_565     S
V3     V33    10.0   .     S
V3     V37    10.0   .     S
V3     V2    10.0   1_545     S
V3     V5    10.0   .     S
V3     V13    10.0   1_545     S
V4     V34    10.0   .     S
V4     V38    10.0   .     S
V4     V1    10.0   1_645     S
V4     V6    10.0   .     S
V4     V14    10.0   1_545     S
V5     V37    10.0   .     S
V5     V33    10.0   .     S
V5     V7    10.0   .     S
V5     V9    10.0   .     S
V6     V38    10.0   .     S
V6     V34    10.0   .     S
V6     V8    10.0   .     S
V6     V10    10.0   .     S
V7     V12    10.0   1_455     S
V7     V24    10.0   1_455     S
V7     V27    10.0   .     S
V7     V1    10.0   1_545     S
V8     V11    10.0   .     S
V8     V23    10.0   .     S
V8     V28    10.0   .     S
V8     V2    10.0   1_545     S
V9     V11    10.0   .     S
V9     V14    10.0   1_455     S
V9     V42    10.0   1_455     S
V9     V45    10.0   .     S
V10     V12    10.0   .     S
V10     V13    10.0   .     S
V10     V41    10.0   .     S
V10     V46    10.0   .     S
V11     V28    10.0   .     S
V11     V23    10.0   .     S
V11     V15    10.0   .     S
V12     V7    10.0   1_655     S
V12     V27    10.0   1_655     S
V12     V24    10.0   .     S
V12     V16    10.0   .     S
V13     V15    10.0   .     S
V13     V41    10.0   .     S
V13     V46    10.0   .     S
V13     V3    10.0   1_565     S
V14     V16    10.0   .     S
V14     V9    10.0   1_655     S
V14     V42    10.0   .     S
V14     V45    10.0   1_655     S
V14     V4    10.0   1_565     S
V15     V31    10.0   .     S
V15     V19    10.0   .     S
V16     V32    10.0   .     S
V16     V20    10.0   .     S
V17     V50    10.0   .     S
V17     V61    10.0   .     S
V17     V19    10.0   1_545     S
V17     V22    10.0   .     S
V17     V29    10.0   1_545     S
V18     V49    10.0   1_655     S
V18     V62    10.0   .     S
V18     V20    10.0   1_545     S
V18     V21    10.0   1_655     S
V18     V30    10.0   1_545     S
V19     V17    10.0   1_565     S
V19     V31    10.0   .     S
V19     V23    10.0   1_565     S
V20     V18    10.0   1_565     S
V20     V32    10.0   .     S
V20     V24    10.0   1_565     S
V21     V62    10.0   1_455     S
V21     V49    10.0   .     S
V21     V18    10.0   1_455     S
V21     V23    10.0   .     S
V21     V25    10.0   .     S
V22     V61    10.0   .     S
V22     V50    10.0   .     S
V22     V24    10.0   .     S
V22     V26    10.0   .     S
V23     V28    10.0   .     S
V23     V19    10.0   1_545     S
V24     V7    10.0   1_655     S
V24     V27    10.0   1_655     S
V24     V20    10.0   1_545     S
V25     V27    10.0   .     S
V25     V29    10.0   .     S
V25     V57    10.0   .     S
V25     V53    10.0   .     S
V26     V28    10.0   .     S
V26     V30    10.0   .     S
V26     V58    10.0   .     S
V26     V54    10.0   .     S
V27     V12    10.0   1_455     S
V27     V24    10.0   1_455     S
V27     V31    10.0   .     S
V28     V32    10.0   .     S
V29     V32    10.0   .     S
V29     V57    10.0   .     S
V29     V53    10.0   .     S
V29     V17    10.0   1_565     S
V30     V31    10.0   1_655     S
V30     V58    10.0   .     S
V30     V54    10.0   .     S
V30     V18    10.0   1_565     S
V31     V30    10.0   1_455     S
V33     V35    10.0   1_545     S
V33     V37    10.0   .     S
V33     V45    10.0   1_545     S
V34     V36    10.0   1_545     S
V34     V38    10.0   .     S
V34     V46    10.0   1_545     S
V35     V33    10.0   1_565     S
V35     V48    10.0   1_455     S
V35     V55    10.0   .     S
V35     V52    10.0   1_455     S
V35     V39    10.0   1_565     S
V36     V34    10.0   1_565     S
V36     V47    10.0   .     S
V36     V56    10.0   .     S
V36     V51    10.0   .     S
V36     V40    10.0   1_565     S
V37     V40    10.0   .     S
V37     V41    10.0   .     S
V38     V39    10.0   1_655     S
V38     V42    10.0   .     S
V39     V63    10.0   .     S
V39     V59    10.0   .     S
V39     V38    10.0   1_455     S
V39     V43    10.0   .     S
V39     V35    10.0   1_545     S
V40     V64    10.0   .     S
V40     V60    10.0   .     S
V40     V44    10.0   .     S
V40     V36    10.0   1_545     S
V41     V43    10.0   .     S
V41     V46    10.0   .     S
V42     V9    10.0   1_655     S
V42     V44    10.0   .     S
V42     V45    10.0   1_655     S
V43     V59    10.0   .     S
V43     V63    10.0   .     S
V43     V47    10.0   .     S
V44     V60    10.0   .     S
V44     V64    10.0   .     S
V44     V48    10.0   .     S
V45     V14    10.0   1_455     S
V45     V42    10.0   1_455     S
V45     V47    10.0   .     S
V45     V33    10.0   1_565     S
V46     V48    10.0   .     S
V46     V34    10.0   1_565     S
V47     V56    10.0   .     S
V47     V51    10.0   .     S
V48     V35    10.0   1_655     S
V48     V55    10.0   1_655     S
V48     V52    10.0   .     S
V49     V18    10.0   1_455     S
V49     V51    10.0   1_544     S
V49     V62    10.0   1_455     S
V49     V53    10.0   1_545     S
V50     V52    10.0   1_544     S
V50     V61    10.0   .     S
V50     V54    10.0   1_545     S
V51     V49    10.0   1_566     S
V51     V56    10.0   .     S
V51     V63    10.0   1_565     S
V52     V50    10.0   1_566     S
V52     V55    10.0   1_655     S
V52     V35    10.0   1_655     S
V52     V64    10.0   1_565     S
V53     V55    10.0   1_554     S
V53     V57    10.0   .     S
V53     V49    10.0   1_565     S
V54     V56    10.0   1_554     S
V54     V58    10.0   .     S
V54     V50    10.0   1_565     S
V55     V53    10.0   1_556     S
V55     V52    10.0   1_455     S
V55     V48    10.0   1_455     S
V55     V59    10.0   .     S
V56     V54    10.0   1_556     S
V56     V60    10.0   .     S
V57     V60    10.0   1_554     S
V57     V61    10.0   .     S
V58     V59    10.0   1_654     S
V58     V62    10.0   .     S
V59     V58    10.0   1_456     S
V59     V63    10.0   .     S
V60     V57    10.0   1_556     S
V60     V64    10.0   .     S
V61     V63    10.0   1_554     S
V62     V21    10.0   1_655     S
V62     V64    10.0   1_554     S
V62     V49    10.0   1_655     S
V63     V61    10.0   1_556     S
V63     V51    10.0   1_545     S
V64     V62    10.0   1_556     S
V64     V52    10.0   1_545     S
