data_vma
_audit_creation_date              2019-12-31
_audit_creation_method            'Pymatgen'
_symmetry_space_group_name_H-M    'P1'
_symmetry_Int_Tables_number       1
loop_
_symmetry_equiv_pos_as_xyz
  x,y,z
_cell_length_a                    24.435
_cell_length_b                    32.065
_cell_length_c                    23.9615
_cell_angle_alpha                 90.0
_cell_angle_beta                 102.6587
_cell_angle_gamma                 90.0
loop_
_atom_site_label
_atom_site_type_symbol
_atom_site_fract_x
_atom_site_fract_y
_atom_site_fract_z
V1     V     0.8435   0.1876   0.854
V2     V     0.8435   0.6876   0.854
V3     V     0.6565   0.0624   0.146
V4     V     0.6565   0.5624   0.146
V5     V     0.8435   0.3124   0.354
V6     V     0.8435   0.8124   0.354
V7     V     0.6565   0.4376   0.646
V8     V     0.6565   0.9376   0.646
V9     V     0.3435   0.4376   0.854
V10     V     0.3435   0.9376   0.854
V11     V     0.1565   0.3124   0.146
V12     V     0.1565   0.8124   0.146
V13     V     0.3435   0.0624   0.354
V14     V     0.3435   0.5624   0.354
V15     V     0.1565   0.1876   0.646
V16     V     0.1565   0.6876   0.646
loop_
_geom_bond_atom_site_label_1
_geom_bond_atom_site_label_2
_geom_bond_distance
_geom_bond_site_symmetry_2
_ccdc_geom_bond_type
V1     V3    10.0   1_556     S
V1     V8    10.0   1_545     S
V1     V7    10.0   .     S
V1     V11    10.0   1_656     S
V1     V15    10.0   1_655     S
V2     V4    10.0   1_556     S
V2     V7    10.0   .     S
V2     V8    10.0   .     S
V2     V12    10.0   1_656     S
V2     V16    10.0   1_655     S
V3     V1    10.0   1_554     S
V3     V6    10.0   1_545     S
V3     V5    10.0   .     S
V3     V10    10.0   1_544     S
V3     V13    10.0   .     S
V4     V2    10.0   1_554     S
V4     V5    10.0   .     S
V4     V6    10.0   .     S
V4     V9    10.0   1_554     S
V4     V14    10.0   .     S
V5     V7    10.0   .     S
V5     V15    10.0   1_655     S
V5     V11    10.0   1_655     S
V6     V8    10.0   .     S
V6     V3    10.0   1_565     S
V6     V16    10.0   1_655     S
V6     V12    10.0   1_655     S
V7     V14    10.0   .     S
V7     V9    10.0   .     S
V8     V1    10.0   1_565     S
V8     V13    10.0   1_565     S
V8     V10    10.0   .     S
V9     V4    10.0   1_556     S
V9     V11    10.0   1_556     S
V9     V16    10.0   .     S
V9     V15    10.0   .     S
V10     V3    10.0   1_566     S
V10     V12    10.0   1_556     S
V10     V15    10.0   1_565     S
V10     V16    10.0   .     S
V11     V9    10.0   1_554     S
V11     V14    10.0   .     S
V11     V13    10.0   .     S
V11     V1    10.0   1_454     S
V11     V5    10.0   1_455     S
V12     V10    10.0   1_554     S
V12     V13    10.0   1_565     S
V12     V14    10.0   .     S
V12     V2    10.0   1_454     S
V12     V6    10.0   1_455     S
V13     V15    10.0   .     S
V13     V12    10.0   1_545     S
V13     V8    10.0   1_545     S
V14     V16    10.0   .     S
V15     V10    10.0   1_545     S
V15     V5    10.0   1_455     S
V15     V1    10.0   1_455     S
V16     V6    10.0   1_455     S
V16     V2    10.0   1_455     S
