data_vmc
_audit_creation_date              2019-12-31
_audit_creation_method            'Pymatgen'
_symmetry_space_group_name_H-M    'P1'
_symmetry_Int_Tables_number       1
loop_
_symmetry_equiv_pos_as_xyz
  x,y,z
_cell_length_a                    30.024
_cell_length_b                    24.8832
_cell_length_c                    35.0234
_cell_angle_alpha                 90.0
_cell_angle_beta                 101.7874
_cell_angle_gamma                 90.0
loop_
_atom_site_label
_atom_site_type_symbol
_atom_site_fract_x
_atom_site_fract_y
_atom_site_fract_z
V1     V     0.6397   0.5971   0.481
V2     V     0.6397   0.5971   0.981
V3     V     0.8603   0.9029   0.019
V4     V     0.8603   0.9029   0.519
V5     V     0.6397   0.4029   0.231
V6     V     0.6397   0.4029   0.731
V7     V     0.8603   0.0971   0.269
V8     V     0.8603   0.0971   0.769
V9     V     0.1397   0.9029   0.231
V10     V     0.1397   0.9029   0.731
V11     V     0.3603   0.5971   0.269
V12     V     0.3603   0.5971   0.769
V13     V     0.1397   0.0971   0.481
V14     V     0.1397   0.0971   0.981
V15     V     0.3603   0.4029   0.019
V16     V     0.3603   0.4029   0.519
loop_
_geom_bond_atom_site_label_1
_geom_bond_atom_site_label_2
_geom_bond_distance
_geom_bond_site_symmetry_2
_ccdc_geom_bond_type
V1     V4    10.0   .     S
V1     V6    10.0   .     S
V1     V5    10.0   .     S
V1     V11    10.0   .     S
V1     V16    10.0   .     S
V2     V3    10.0   1_556     S
V2     V5    10.0   1_556     S
V2     V6    10.0   .     S
V2     V12    10.0   .     S
V2     V15    10.0   1_556     S
V3     V2    10.0   1_554     S
V3     V8    10.0   1_564     S
V3     V7    10.0   1_565     S
V3     V14    10.0   1_664     S
V3     V9    10.0   1_655     S
V4     V7    10.0   1_565     S
V4     V8    10.0   1_565     S
V4     V13    10.0   1_665     S
V4     V10    10.0   1_655     S
V5     V2    10.0   1_554     S
V5     V7    10.0   .     S
V5     V11    10.0   .     S
V5     V15    10.0   .     S
V6     V8    10.0   .     S
V6     V12    10.0   .     S
V6     V16    10.0   .     S
V7     V4    10.0   1_545     S
V7     V3    10.0   1_545     S
V7     V9    10.0   1_645     S
V7     V13    10.0   1_655     S
V8     V3    10.0   1_546     S
V8     V4    10.0   1_545     S
V8     V10    10.0   1_645     S
V8     V14    10.0   1_655     S
V9     V7    10.0   1_465     S
V9     V3    10.0   1_455     S
V9     V11    10.0   .     S
V9     V14    10.0   1_564     S
V9     V13    10.0   1_565     S
V10     V8    10.0   1_465     S
V10     V4    10.0   1_455     S
V10     V12    10.0   .     S
V10     V13    10.0   1_565     S
V10     V14    10.0   1_565     S
V11     V16    10.0   .     S
V11     V15    10.0   .     S
V12     V15    10.0   1_556     S
V12     V16    10.0   .     S
V13     V7    10.0   1_455     S
V13     V4    10.0   1_445     S
V13     V16    10.0   .     S
V13     V10    10.0   1_545     S
V13     V9    10.0   1_545     S
V14     V8    10.0   1_455     S
V14     V3    10.0   1_446     S
V14     V15    10.0   1_556     S
V14     V9    10.0   1_546     S
V14     V10    10.0   1_545     S
V15     V2    10.0   1_554     S
V15     V12    10.0   1_554     S
V15     V14    10.0   1_554     S
