data_vmd
_audit_creation_date              2019-12-31
_audit_creation_method            'Pymatgen'
_symmetry_space_group_name_H-M    'P1'
_symmetry_Int_Tables_number       1
loop_
_symmetry_equiv_pos_as_xyz
  x,y,z
_cell_length_a                    29.479
_cell_length_b                    34.1562
_cell_length_c                    38.2654
_cell_angle_alpha                 90.0
_cell_angle_beta                 100.498
_cell_angle_gamma                 90.0
loop_
_atom_site_label
_atom_site_type_symbol
_atom_site_fract_x
_atom_site_fract_y
_atom_site_fract_z
V1     V     0.8275   0.2926   0.3516
V2     V     0.8275   0.2926   0.8516
V3     V     0.8275   0.7926   0.3516
V4     V     0.8275   0.7926   0.8516
V5     V     0.6725   0.4574   0.1484
V6     V     0.6725   0.4574   0.6484
V7     V     0.6725   0.9574   0.1484
V8     V     0.6725   0.9574   0.6484
V9     V     0.6725   0.0426   0.3984
V10     V     0.6725   0.0426   0.8984
V11     V     0.6725   0.5426   0.3984
V12     V     0.6725   0.5426   0.8984
V13     V     0.8275   0.2074   0.1016
V14     V     0.8275   0.2074   0.6016
V15     V     0.8275   0.7074   0.1016
V16     V     0.8275   0.7074   0.6016
V17     V     0.1725   0.2926   0.3984
V18     V     0.1725   0.2926   0.8984
V19     V     0.1725   0.7926   0.3984
V20     V     0.1725   0.7926   0.8984
V21     V     0.3275   0.4574   0.1016
V22     V     0.3275   0.4574   0.6016
V23     V     0.3275   0.9574   0.1016
V24     V     0.3275   0.9574   0.6016
V25     V     0.1725   0.2074   0.1484
V26     V     0.1725   0.2074   0.6484
V27     V     0.1725   0.7074   0.1484
V28     V     0.1725   0.7074   0.6484
V29     V     0.3275   0.0426   0.3516
V30     V     0.3275   0.0426   0.8516
V31     V     0.3275   0.5426   0.3516
V32     V     0.3275   0.5426   0.8516
loop_
_geom_bond_atom_site_label_1
_geom_bond_atom_site_label_2
_geom_bond_distance
_geom_bond_site_symmetry_2
_ccdc_geom_bond_type
V1     V9    10.0   .     S
V1     V14    10.0   .     S
V1     V11    10.0   .     S
V1     V5    10.0   .     S
V1     V13    10.0   .     S
V1     V17    10.0   1_655     S
V2     V10    10.0   .     S
V2     V13    10.0   1_556     S
V2     V12    10.0   .     S
V2     V6    10.0   .     S
V2     V14    10.0   .     S
V2     V18    10.0   1_655     S
V3     V11    10.0   .     S
V3     V16    10.0   .     S
V3     V9    10.0   1_565     S
V3     V7    10.0   .     S
V3     V15    10.0   .     S
V3     V19    10.0   1_655     S
V4     V12    10.0   .     S
V4     V15    10.0   1_556     S
V4     V10    10.0   1_565     S
V4     V8    10.0   .     S
V4     V16    10.0   .     S
V4     V20    10.0   1_655     S
V5     V11    10.0   .     S
V5     V15    10.0   .     S
V5     V12    10.0   1_554     S
V5     V13    10.0   .     S
V5     V21    10.0   .     S
V6     V12    10.0   .     S
V6     V16    10.0   .     S
V6     V11    10.0   .     S
V6     V14    10.0   .     S
V6     V22    10.0   .     S
V7     V9    10.0   1_565     S
V7     V13    10.0   1_565     S
V7     V10    10.0   1_564     S
V7     V15    10.0   .     S
V7     V23    10.0   .     S
V8     V10    10.0   1_565     S
V8     V14    10.0   1_565     S
V8     V9    10.0   1_565     S
V8     V16    10.0   .     S
V8     V24    10.0   .     S
V9     V3    10.0   1_545     S
V9     V7    10.0   1_545     S
V9     V8    10.0   1_545     S
V9     V14    10.0   .     S
V9     V29    10.0   .     S
V10     V4    10.0   1_545     S
V10     V8    10.0   1_545     S
V10     V7    10.0   1_546     S
V10     V13    10.0   1_556     S
V10     V30    10.0   .     S
V11     V16    10.0   .     S
V11     V31    10.0   .     S
V12     V5    10.0   1_556     S
V12     V15    10.0   1_556     S
V12     V32    10.0   .     S
V13     V2    10.0   1_554     S
V13     V7    10.0   1_545     S
V13     V10    10.0   1_554     S
V13     V25    10.0   1_655     S
V14     V8    10.0   1_545     S
V14     V26    10.0   1_655     S
V15     V4    10.0   1_554     S
V15     V12    10.0   1_554     S
V15     V27    10.0   1_655     S
V16     V28    10.0   1_655     S
V17     V1    10.0   1_455     S
V17     V29    10.0   .     S
V17     V25    10.0   .     S
V17     V31    10.0   .     S
V17     V22    10.0   .     S
V17     V26    10.0   .     S
V18     V2    10.0   1_455     S
V18     V30    10.0   .     S
V18     V26    10.0   .     S
V18     V32    10.0   .     S
V18     V21    10.0   1_556     S
V18     V25    10.0   1_556     S
V19     V3    10.0   1_455     S
V19     V31    10.0   .     S
V19     V27    10.0   .     S
V19     V29    10.0   1_565     S
V19     V24    10.0   .     S
V19     V28    10.0   .     S
V20     V4    10.0   1_455     S
V20     V32    10.0   .     S
V20     V28    10.0   .     S
V20     V30    10.0   1_565     S
V20     V23    10.0   1_556     S
V20     V27    10.0   1_556     S
V21     V32    10.0   1_554     S
V21     V27    10.0   .     S
V21     V31    10.0   .     S
V21     V18    10.0   1_554     S
V21     V25    10.0   .     S
V22     V31    10.0   .     S
V22     V28    10.0   .     S
V22     V32    10.0   .     S
V22     V26    10.0   .     S
V23     V30    10.0   1_564     S
V23     V25    10.0   1_565     S
V23     V29    10.0   1_565     S
V23     V20    10.0   1_554     S
V23     V27    10.0   .     S
V24     V29    10.0   1_565     S
V24     V26    10.0   1_565     S
V24     V30    10.0   1_565     S
V24     V28    10.0   .     S
V25     V13    10.0   1_455     S
V25     V23    10.0   1_545     S
V25     V29    10.0   .     S
V25     V18    10.0   1_554     S
V26     V14    10.0   1_455     S
V26     V24    10.0   1_545     S
V26     V30    10.0   .     S
V27     V15    10.0   1_455     S
V27     V31    10.0   .     S
V27     V20    10.0   1_554     S
V28     V16    10.0   1_455     S
V28     V32    10.0   .     S
V29     V19    10.0   1_545     S
V29     V24    10.0   1_545     S
V29     V23    10.0   1_545     S
V30     V20    10.0   1_545     S
V30     V23    10.0   1_546     S
V30     V24    10.0   1_545     S
V32     V21    10.0   1_556     S
