data_vme
_audit_creation_date              2019-12-31
_audit_creation_method            'Pymatgen'
_symmetry_space_group_name_H-M    'P1'
_symmetry_Int_Tables_number       1
loop_
_symmetry_equiv_pos_as_xyz
  x,y,z
_cell_length_a                    32.6342
_cell_length_b                    32.6516
_cell_length_c                    36.5082
_cell_angle_alpha                 90.0
_cell_angle_beta                 116.4253
_cell_angle_gamma                 90.0
loop_
_atom_site_label
_atom_site_type_symbol
_atom_site_fract_x
_atom_site_fract_y
_atom_site_fract_z
V1     V     0.0938   0.1876   0.1873
V2     V     0.0938   0.1876   0.6873
V3     V     0.0938   0.6876   0.1873
V4     V     0.0938   0.6876   0.6873
V5     V     0.5938   0.1876   0.1873
V6     V     0.5938   0.1876   0.6873
V7     V     0.5938   0.6876   0.1873
V8     V     0.5938   0.6876   0.6873
V9     V     0.0938   0.0624   0.4373
V10     V     0.0938   0.0624   0.9373
V11     V     0.0938   0.5624   0.4373
V12     V     0.0938   0.5624   0.9373
V13     V     0.5938   0.0624   0.4373
V14     V     0.5938   0.0624   0.9373
V15     V     0.5938   0.5624   0.4373
V16     V     0.5938   0.5624   0.9373
V17     V     0.4062   0.3124   0.3127
V18     V     0.4062   0.3124   0.8127
V19     V     0.4062   0.8124   0.3127
V20     V     0.4062   0.8124   0.8127
V21     V     0.9062   0.3124   0.3127
V22     V     0.9062   0.3124   0.8127
V23     V     0.9062   0.8124   0.3127
V24     V     0.9062   0.8124   0.8127
V25     V     0.4062   0.4376   0.0627
V26     V     0.4062   0.4376   0.5627
V27     V     0.4062   0.9376   0.0627
V28     V     0.4062   0.9376   0.5627
V29     V     0.9062   0.4376   0.0627
V30     V     0.9062   0.4376   0.5627
V31     V     0.9062   0.9376   0.0627
V32     V     0.9062   0.9376   0.5627
loop_
_geom_bond_atom_site_label_1
_geom_bond_atom_site_label_2
_geom_bond_distance
_geom_bond_site_symmetry_2
_ccdc_geom_bond_type
V1     V21    10.0   1_455     S
V1     V29    10.0   1_455     S
V1     V10    10.0   1_554     S
V1     V9    10.0   .     S
V1     V31    10.0   1_445     S
V1     V17    10.0   .     S
V2     V22    10.0   1_455     S
V2     V30    10.0   1_455     S
V2     V9    10.0   .     S
V2     V10    10.0   .     S
V2     V32    10.0   1_445     S
V2     V18    10.0   .     S
V3     V23    10.0   1_455     S
V3     V31    10.0   1_455     S
V3     V12    10.0   1_554     S
V3     V11    10.0   .     S
V3     V29    10.0   1_455     S
V3     V19    10.0   .     S
V4     V24    10.0   1_455     S
V4     V32    10.0   1_455     S
V4     V11    10.0   .     S
V4     V12    10.0   .     S
V4     V30    10.0   1_455     S
V4     V20    10.0   .     S
V5     V17    10.0   .     S
V5     V25    10.0   .     S
V5     V14    10.0   1_554     S
V5     V13    10.0   .     S
V5     V27    10.0   1_545     S
V5     V21    10.0   .     S
V6     V18    10.0   .     S
V6     V26    10.0   .     S
V6     V13    10.0   .     S
V6     V14    10.0   .     S
V6     V28    10.0   1_545     S
V6     V22    10.0   .     S
V7     V19    10.0   .     S
V7     V27    10.0   .     S
V7     V16    10.0   1_554     S
V7     V15    10.0   .     S
V7     V25    10.0   .     S
V7     V23    10.0   .     S
V8     V20    10.0   .     S
V8     V28    10.0   .     S
V8     V15    10.0   .     S
V8     V16    10.0   .     S
V8     V26    10.0   .     S
V8     V24    10.0   .     S
V9     V21    10.0   1_455     S
V9     V32    10.0   1_445     S
V9     V23    10.0   1_445     S
V9     V28    10.0   1_545     S
V10     V22    10.0   1_455     S
V10     V1    10.0   1_556     S
V10     V31    10.0   1_446     S
V10     V24    10.0   1_445     S
V10     V27    10.0   1_546     S
V11     V23    10.0   1_455     S
V11     V30    10.0   1_455     S
V11     V21    10.0   1_455     S
V11     V26    10.0   .     S
V12     V24    10.0   1_455     S
V12     V3    10.0   1_556     S
V12     V29    10.0   1_456     S
V12     V22    10.0   1_455     S
V12     V25    10.0   1_556     S
V13     V17    10.0   .     S
V13     V28    10.0   1_545     S
V13     V19    10.0   1_545     S
V13     V32    10.0   1_545     S
V14     V18    10.0   .     S
V14     V5    10.0   1_556     S
V14     V27    10.0   1_546     S
V14     V20    10.0   1_545     S
V14     V31    10.0   1_546     S
V15     V19    10.0   .     S
V15     V26    10.0   .     S
V15     V17    10.0   .     S
V15     V30    10.0   .     S
V16     V20    10.0   .     S
V16     V7    10.0   1_556     S
V16     V25    10.0   1_556     S
V16     V18    10.0   .     S
V16     V29    10.0   1_556     S
V17     V25    10.0   .     S
V17     V26    10.0   .     S
V18     V26    10.0   .     S
V18     V25    10.0   1_556     S
V19     V13    10.0   1_565     S
V19     V27    10.0   .     S
V19     V28    10.0   .     S
V20     V14    10.0   1_565     S
V20     V28    10.0   .     S
V20     V27    10.0   1_556     S
V21     V9    10.0   1_655     S
V21     V1    10.0   1_655     S
V21     V11    10.0   1_655     S
V21     V29    10.0   .     S
V21     V30    10.0   .     S
V22     V10    10.0   1_655     S
V22     V2    10.0   1_655     S
V22     V12    10.0   1_655     S
V22     V30    10.0   .     S
V22     V29    10.0   1_556     S
V23     V11    10.0   1_655     S
V23     V3    10.0   1_655     S
V23     V9    10.0   1_665     S
V23     V31    10.0   .     S
V23     V32    10.0   .     S
V24     V12    10.0   1_655     S
V24     V4    10.0   1_655     S
V24     V10    10.0   1_665     S
V24     V32    10.0   .     S
V24     V31    10.0   1_556     S
V25     V16    10.0   1_554     S
V25     V18    10.0   1_554     S
V25     V12    10.0   1_554     S
V27     V5    10.0   1_565     S
V27     V14    10.0   1_564     S
V27     V20    10.0   1_554     S
V27     V10    10.0   1_564     S
V28     V6    10.0   1_565     S
V28     V13    10.0   1_565     S
V28     V9    10.0   1_565     S
V29     V1    10.0   1_655     S
V29     V3    10.0   1_655     S
V29     V12    10.0   1_654     S
V29     V22    10.0   1_554     S
V29     V16    10.0   1_554     S
V30     V2    10.0   1_655     S
V30     V4    10.0   1_655     S
V30     V11    10.0   1_655     S
V31     V3    10.0   1_655     S
V31     V1    10.0   1_665     S
V31     V10    10.0   1_664     S
V31     V24    10.0   1_554     S
V31     V14    10.0   1_564     S
V32     V4    10.0   1_655     S
V32     V2    10.0   1_665     S
V32     V9    10.0   1_665     S
V32     V13    10.0   1_565     S
