data_vmg
_audit_creation_date              2019-12-31
_audit_creation_method            'Pymatgen'
_symmetry_space_group_name_H-M    'P1'
_symmetry_Int_Tables_number       1
loop_
_symmetry_equiv_pos_as_xyz
  x,y,z
_cell_length_a                    35.9062
_cell_length_b                    28.8939
_cell_length_c                    33.766
_cell_angle_alpha                 90.0
_cell_angle_beta                 100.1722
_cell_angle_gamma                 90.0
loop_
_atom_site_label
_atom_site_type_symbol
_atom_site_fract_x
_atom_site_fract_y
_atom_site_fract_z
V1     V     0.114   0.5928   0.3087
V2     V     0.114   0.5928   0.8087
V3     V     0.614   0.5928   0.3087
V4     V     0.614   0.5928   0.8087
V5     V     0.386   0.5928   0.4413
V6     V     0.386   0.5928   0.9413
V7     V     0.886   0.5928   0.4413
V8     V     0.886   0.5928   0.9413
V9     V     0.386   0.4072   0.1913
V10     V     0.386   0.4072   0.6913
V11     V     0.886   0.4072   0.1913
V12     V     0.886   0.4072   0.6913
V13     V     0.114   0.4072   0.0587
V14     V     0.114   0.4072   0.5587
V15     V     0.614   0.4072   0.0587
V16     V     0.614   0.4072   0.5587
V17     V     0.364   0.9072   0.0587
V18     V     0.364   0.9072   0.5587
V19     V     0.864   0.9072   0.0587
V20     V     0.864   0.9072   0.5587
V21     V     0.136   0.9072   0.1913
V22     V     0.136   0.9072   0.6913
V23     V     0.636   0.9072   0.1913
V24     V     0.636   0.9072   0.6913
V25     V     0.136   0.0928   0.4413
V26     V     0.136   0.0928   0.9413
V27     V     0.636   0.0928   0.4413
V28     V     0.636   0.0928   0.9413
V29     V     0.364   0.0928   0.3087
V30     V     0.364   0.0928   0.8087
V31     V     0.864   0.0928   0.3087
V32     V     0.864   0.0928   0.8087
loop_
_geom_bond_atom_site_label_1
_geom_bond_atom_site_label_2
_geom_bond_distance
_geom_bond_site_symmetry_2
_ccdc_geom_bond_type
V1     V11    10.0   1_455     S
V1     V7    10.0   1_455     S
V1     V5    10.0   .     S
V1     V13    10.0   .     S
V1     V14    10.0   .     S
V1     V21    10.0   .     S
V2     V12    10.0   1_455     S
V2     V8    10.0   1_455     S
V2     V6    10.0   .     S
V2     V14    10.0   .     S
V2     V13    10.0   1_556     S
V2     V22    10.0   .     S
V3     V9    10.0   .     S
V3     V5    10.0   .     S
V3     V7    10.0   .     S
V3     V15    10.0   .     S
V3     V16    10.0   .     S
V3     V23    10.0   .     S
V4     V10    10.0   .     S
V4     V6    10.0   .     S
V4     V8    10.0   .     S
V4     V16    10.0   .     S
V4     V15    10.0   1_556     S
V4     V24    10.0   .     S
V5     V16    10.0   .     S
V5     V10    10.0   .     S
V5     V9    10.0   .     S
V5     V18    10.0   .     S
V6     V15    10.0   1_556     S
V6     V9    10.0   1_556     S
V6     V10    10.0   .     S
V6     V17    10.0   1_556     S
V7     V14    10.0   1_655     S
V7     V1    10.0   1_655     S
V7     V12    10.0   .     S
V7     V11    10.0   .     S
V7     V20    10.0   .     S
V8     V13    10.0   1_656     S
V8     V2    10.0   1_655     S
V8     V11    10.0   1_556     S
V8     V12    10.0   .     S
V8     V19    10.0   1_556     S
V9     V15    10.0   .     S
V9     V13    10.0   .     S
V9     V6    10.0   1_554     S
V9     V29    10.0   .     S
V10     V16    10.0   .     S
V10     V14    10.0   .     S
V10     V30    10.0   .     S
V11     V1    10.0   1_655     S
V11     V13    10.0   1_655     S
V11     V15    10.0   .     S
V11     V8    10.0   1_554     S
V11     V31    10.0   .     S
V12     V2    10.0   1_655     S
V12     V14    10.0   1_655     S
V12     V16    10.0   .     S
V12     V32    10.0   .     S
V13     V11    10.0   1_455     S
V13     V8    10.0   1_454     S
V13     V2    10.0   1_554     S
V13     V26    10.0   1_554     S
V14     V12    10.0   1_455     S
V14     V7    10.0   1_455     S
V14     V25    10.0   .     S
V15     V6    10.0   1_554     S
V15     V4    10.0   1_554     S
V15     V28    10.0   1_554     S
V16     V27    10.0   .     S
V17     V6    10.0   1_554     S
V17     V23    10.0   .     S
V17     V29    10.0   1_565     S
V17     V30    10.0   1_564     S
V17     V21    10.0   .     S
V17     V26    10.0   1_564     S
V18     V24    10.0   .     S
V18     V30    10.0   1_565     S
V18     V29    10.0   1_565     S
V18     V22    10.0   .     S
V18     V25    10.0   1_565     S
V19     V8    10.0   1_554     S
V19     V21    10.0   1_655     S
V19     V31    10.0   1_565     S
V19     V32    10.0   1_564     S
V19     V23    10.0   .     S
V19     V28    10.0   1_564     S
V20     V22    10.0   1_655     S
V20     V32    10.0   1_565     S
V20     V31    10.0   1_565     S
V20     V24    10.0   .     S
V20     V27    10.0   1_565     S
V21     V19    10.0   1_455     S
V21     V26    10.0   1_564     S
V21     V25    10.0   1_565     S
V21     V29    10.0   1_565     S
V22     V20    10.0   1_455     S
V22     V25    10.0   1_565     S
V22     V26    10.0   1_565     S
V22     V30    10.0   1_565     S
V23     V28    10.0   1_564     S
V23     V27    10.0   1_565     S
V23     V31    10.0   1_565     S
V24     V27    10.0   1_565     S
V24     V28    10.0   1_565     S
V24     V32    10.0   1_565     S
V25     V31    10.0   1_455     S
V25     V22    10.0   1_545     S
V25     V21    10.0   1_545     S
V25     V18    10.0   1_545     S
V25     V29    10.0   .     S
V26     V32    10.0   1_455     S
V26     V21    10.0   1_546     S
V26     V22    10.0   1_545     S
V26     V17    10.0   1_546     S
V26     V30    10.0   .     S
V26     V13    10.0   1_556     S
V27     V29    10.0   .     S
V27     V24    10.0   1_545     S
V27     V23    10.0   1_545     S
V27     V20    10.0   1_545     S
V27     V31    10.0   .     S
V28     V30    10.0   .     S
V28     V23    10.0   1_546     S
V28     V24    10.0   1_545     S
V28     V19    10.0   1_546     S
V28     V32    10.0   .     S
V28     V15    10.0   1_556     S
V29     V17    10.0   1_545     S
V29     V18    10.0   1_545     S
V29     V21    10.0   1_545     S
V30     V18    10.0   1_545     S
V30     V17    10.0   1_546     S
V30     V22    10.0   1_545     S
V31     V25    10.0   1_655     S
V31     V19    10.0   1_545     S
V31     V20    10.0   1_545     S
V31     V23    10.0   1_545     S
V32     V26    10.0   1_655     S
V32     V20    10.0   1_545     S
V32     V19    10.0   1_546     S
V32     V24    10.0   1_545     S
