data_vmh
_audit_creation_date              2019-12-31
_audit_creation_method            'Pymatgen'
_symmetry_space_group_name_H-M    'P1'
_symmetry_Int_Tables_number       1
loop_
_symmetry_equiv_pos_as_xyz
  x,y,z
_cell_length_a                    36.4398
_cell_length_b                    27.3774
_cell_length_c                    36.978
_cell_angle_alpha                 90.0
_cell_angle_beta                 104.7266
_cell_angle_gamma                 90.0
loop_
_atom_site_label
_atom_site_type_symbol
_atom_site_fract_x
_atom_site_fract_y
_atom_site_fract_z
V1     V     0.3693   0.9304   0.478
V2     V     0.3693   0.9304   0.978
V3     V     0.8693   0.9304   0.478
V4     V     0.8693   0.9304   0.978
V5     V     0.3807   0.5696   0.022
V6     V     0.3807   0.5696   0.522
V7     V     0.8807   0.5696   0.022
V8     V     0.8807   0.5696   0.522
V9     V     0.1307   0.9304   0.272
V10     V     0.1307   0.9304   0.772
V11     V     0.6307   0.9304   0.272
V12     V     0.6307   0.9304   0.772
V13     V     0.1193   0.5696   0.228
V14     V     0.1193   0.5696   0.728
V15     V     0.6193   0.5696   0.228
V16     V     0.6193   0.5696   0.728
V17     V     0.3807   0.4304   0.272
V18     V     0.3807   0.4304   0.772
V19     V     0.8807   0.4304   0.272
V20     V     0.8807   0.4304   0.772
V21     V     0.3693   0.0696   0.228
V22     V     0.3693   0.0696   0.728
V23     V     0.8693   0.0696   0.228
V24     V     0.8693   0.0696   0.728
V25     V     0.1307   0.0696   0.022
V26     V     0.1307   0.0696   0.522
V27     V     0.6307   0.0696   0.022
V28     V     0.6307   0.0696   0.522
V29     V     0.1193   0.4304   0.478
V30     V     0.1193   0.4304   0.978
V31     V     0.6193   0.4304   0.478
V32     V     0.6193   0.4304   0.978
loop_
_geom_bond_atom_site_label_1
_geom_bond_atom_site_label_2
_geom_bond_distance
_geom_bond_site_symmetry_2
_ccdc_geom_bond_type
V1     V21    10.0   1_565     S
V1     V26    10.0   1_565     S
V1     V22    10.0   1_565     S
V1     V6    10.0   .     S
V1     V9    10.0   .     S
V1     V28    10.0   1_565     S
V2     V22    10.0   1_565     S
V2     V25    10.0   1_566     S
V2     V21    10.0   1_566     S
V2     V5    10.0   1_556     S
V2     V10    10.0   .     S
V2     V27    10.0   1_566     S
V3     V23    10.0   1_565     S
V3     V28    10.0   1_565     S
V3     V24    10.0   1_565     S
V3     V8    10.0   .     S
V3     V11    10.0   .     S
V3     V26    10.0   1_665     S
V4     V24    10.0   1_565     S
V4     V27    10.0   1_566     S
V4     V23    10.0   1_566     S
V4     V7    10.0   1_556     S
V4     V12    10.0   .     S
V4     V25    10.0   1_666     S
V5     V32    10.0   1_554     S
V5     V18    10.0   1_554     S
V5     V2    10.0   1_554     S
V5     V15    10.0   .     S
V5     V17    10.0   .     S
V5     V30    10.0   1_554     S
V6     V31    10.0   .     S
V6     V17    10.0   .     S
V6     V16    10.0   .     S
V6     V18    10.0   .     S
V6     V29    10.0   .     S
V7     V30    10.0   1_654     S
V7     V20    10.0   1_554     S
V7     V4    10.0   1_554     S
V7     V13    10.0   1_655     S
V7     V19    10.0   .     S
V7     V32    10.0   1_554     S
V8     V29    10.0   1_655     S
V8     V19    10.0   .     S
V8     V14    10.0   1_655     S
V8     V20    10.0   .     S
V8     V31    10.0   .     S
V9     V21    10.0   1_565     S
V9     V25    10.0   1_565     S
V9     V26    10.0   1_565     S
V9     V13    10.0   .     S
V9     V23    10.0   1_465     S
V10     V22    10.0   1_565     S
V10     V26    10.0   1_565     S
V10     V25    10.0   1_566     S
V10     V14    10.0   .     S
V10     V24    10.0   1_465     S
V11     V23    10.0   1_565     S
V11     V27    10.0   1_565     S
V11     V28    10.0   1_565     S
V11     V15    10.0   .     S
V11     V21    10.0   1_565     S
V12     V24    10.0   1_565     S
V12     V28    10.0   1_565     S
V12     V27    10.0   1_566     S
V12     V16    10.0   .     S
V12     V22    10.0   1_565     S
V13     V30    10.0   1_554     S
V13     V7    10.0   1_455     S
V13     V29    10.0   .     S
V13     V19    10.0   1_455     S
V13     V17    10.0   .     S
V14     V29    10.0   .     S
V14     V8    10.0   1_455     S
V14     V30    10.0   .     S
V14     V20    10.0   1_455     S
V14     V18    10.0   .     S
V15     V32    10.0   1_554     S
V15     V31    10.0   .     S
V15     V17    10.0   .     S
V15     V19    10.0   .     S
V16     V31    10.0   .     S
V16     V32    10.0   .     S
V16     V18    10.0   .     S
V16     V20    10.0   .     S
V17     V21    10.0   .     S
V17     V31    10.0   .     S
V18     V5    10.0   1_556     S
V18     V22    10.0   .     S
V18     V32    10.0   .     S
V19     V23    10.0   .     S
V19     V29    10.0   1_655     S
V19     V13    10.0   1_655     S
V20     V7    10.0   1_556     S
V20     V24    10.0   .     S
V20     V30    10.0   1_655     S
V20     V14    10.0   1_655     S
V21     V1    10.0   1_545     S
V21     V9    10.0   1_545     S
V21     V2    10.0   1_544     S
V21     V25    10.0   .     S
V21     V11    10.0   1_545     S
V22     V2    10.0   1_545     S
V22     V10    10.0   1_545     S
V22     V1    10.0   1_545     S
V22     V26    10.0   .     S
V22     V12    10.0   1_545     S
V23     V3    10.0   1_545     S
V23     V11    10.0   1_545     S
V23     V4    10.0   1_544     S
V23     V27    10.0   .     S
V23     V9    10.0   1_645     S
V24     V4    10.0   1_545     S
V24     V12    10.0   1_545     S
V24     V3    10.0   1_545     S
V24     V28    10.0   .     S
V24     V10    10.0   1_645     S
V25     V9    10.0   1_545     S
V25     V10    10.0   1_544     S
V25     V2    10.0   1_544     S
V25     V30    10.0   1_554     S
V25     V4    10.0   1_444     S
V26     V10    10.0   1_545     S
V26     V9    10.0   1_545     S
V26     V1    10.0   1_545     S
V26     V29    10.0   .     S
V26     V3    10.0   1_445     S
V27     V11    10.0   1_545     S
V27     V12    10.0   1_544     S
V27     V4    10.0   1_544     S
V27     V32    10.0   1_554     S
V27     V2    10.0   1_544     S
V28     V12    10.0   1_545     S
V28     V11    10.0   1_545     S
V28     V3    10.0   1_545     S
V28     V31    10.0   .     S
V28     V1    10.0   1_545     S
V29     V8    10.0   1_455     S
V29     V19    10.0   1_455     S
V30     V13    10.0   1_556     S
V30     V7    10.0   1_456     S
V30     V25    10.0   1_556     S
V30     V20    10.0   1_455     S
V30     V5    10.0   1_556     S
V32     V15    10.0   1_556     S
V32     V5    10.0   1_556     S
V32     V27    10.0   1_556     S
V32     V7    10.0   1_556     S
