data_vmi
_audit_creation_date              2019-12-31
_audit_creation_method            'Pymatgen'
_symmetry_space_group_name_H-M    'P1'
_symmetry_Int_Tables_number       1
loop_
_symmetry_equiv_pos_as_xyz
  x,y,z
_cell_length_a                    35.8134
_cell_length_b                    28.3971
_cell_length_c                    38.9782
_cell_angle_alpha                 90.0
_cell_angle_beta                 110.9713
_cell_angle_gamma                 90.0
loop_
_atom_site_label
_atom_site_type_symbol
_atom_site_fract_x
_atom_site_fract_y
_atom_site_fract_z
V1     V     0.3414   0.5784   0.364
V2     V     0.3414   0.5784   0.864
V3     V     0.8414   0.5784   0.364
V4     V     0.8414   0.5784   0.864
V5     V     0.4086   0.5784   0.136
V6     V     0.4086   0.5784   0.636
V7     V     0.9086   0.5784   0.136
V8     V     0.9086   0.5784   0.636
V9     V     0.1586   0.4216   0.136
V10     V     0.1586   0.4216   0.636
V11     V     0.6586   0.4216   0.136
V12     V     0.6586   0.4216   0.636
V13     V     0.0914   0.4216   0.364
V14     V     0.0914   0.4216   0.864
V15     V     0.5914   0.4216   0.364
V16     V     0.5914   0.4216   0.864
V17     V     0.3414   0.9216   0.114
V18     V     0.3414   0.9216   0.614
V19     V     0.8414   0.9216   0.114
V20     V     0.8414   0.9216   0.614
V21     V     0.4086   0.9216   0.386
V22     V     0.4086   0.9216   0.886
V23     V     0.9086   0.9216   0.386
V24     V     0.9086   0.9216   0.886
V25     V     0.0914   0.0784   0.114
V26     V     0.0914   0.0784   0.614
V27     V     0.5914   0.0784   0.114
V28     V     0.5914   0.0784   0.614
V29     V     0.1586   0.0784   0.386
V30     V     0.1586   0.0784   0.886
V31     V     0.6586   0.0784   0.386
V32     V     0.6586   0.0784   0.886
loop_
_geom_bond_atom_site_label_1
_geom_bond_atom_site_label_2
_geom_bond_distance
_geom_bond_site_symmetry_2
_ccdc_geom_bond_type
V1     V13    10.0   .     S
V1     V6    10.0   .     S
V1     V9    10.0   .     S
V1     V15    10.0   .     S
V1     V5    10.0   .     S
V1     V21    10.0   .     S
V2     V14    10.0   .     S
V2     V5    10.0   1_556     S
V2     V10    10.0   .     S
V2     V16    10.0   .     S
V2     V6    10.0   .     S
V2     V22    10.0   .     S
V3     V15    10.0   .     S
V3     V8    10.0   .     S
V3     V11    10.0   .     S
V3     V13    10.0   1_655     S
V3     V7    10.0   .     S
V3     V23    10.0   .     S
V4     V16    10.0   .     S
V4     V7    10.0   1_556     S
V4     V12    10.0   .     S
V4     V14    10.0   1_655     S
V4     V8    10.0   .     S
V4     V24    10.0   .     S
V5     V11    10.0   .     S
V5     V2    10.0   1_554     S
V5     V15    10.0   .     S
V5     V9    10.0   .     S
V5     V17    10.0   .     S
V6     V12    10.0   .     S
V6     V16    10.0   .     S
V6     V10    10.0   .     S
V6     V18    10.0   .     S
V7     V9    10.0   1_655     S
V7     V4    10.0   1_554     S
V7     V13    10.0   1_655     S
V7     V11    10.0   .     S
V7     V19    10.0   .     S
V8     V10    10.0   1_655     S
V8     V14    10.0   1_655     S
V8     V12    10.0   .     S
V8     V20    10.0   .     S
V9     V7    10.0   1_455     S
V9     V13    10.0   .     S
V9     V14    10.0   1_554     S
V9     V25    10.0   .     S
V10     V8    10.0   1_455     S
V10     V14    10.0   .     S
V10     V13    10.0   .     S
V10     V26    10.0   .     S
V11     V15    10.0   .     S
V11     V16    10.0   1_554     S
V11     V27    10.0   .     S
V12     V16    10.0   .     S
V12     V15    10.0   .     S
V12     V28    10.0   .     S
V13     V7    10.0   1_455     S
V13     V3    10.0   1_455     S
V13     V29    10.0   .     S
V14     V9    10.0   1_556     S
V14     V8    10.0   1_455     S
V14     V4    10.0   1_455     S
V14     V30    10.0   .     S
V15     V31    10.0   .     S
V16     V11    10.0   1_556     S
V16     V32    10.0   .     S
V17     V25    10.0   1_565     S
V17     V21    10.0   .     S
V17     V30    10.0   1_564     S
V17     V27    10.0   1_565     S
V17     V22    10.0   1_554     S
V18     V26    10.0   1_565     S
V18     V22    10.0   .     S
V18     V29    10.0   1_565     S
V18     V28    10.0   1_565     S
V18     V21    10.0   .     S
V19     V27    10.0   1_565     S
V19     V23    10.0   .     S
V19     V32    10.0   1_564     S
V19     V25    10.0   1_665     S
V19     V24    10.0   1_554     S
V20     V28    10.0   1_565     S
V20     V24    10.0   .     S
V20     V31    10.0   1_565     S
V20     V26    10.0   1_665     S
V20     V23    10.0   .     S
V21     V31    10.0   1_565     S
V21     V28    10.0   1_565     S
V21     V29    10.0   1_565     S
V22     V32    10.0   1_565     S
V22     V27    10.0   1_566     S
V22     V17    10.0   1_556     S
V22     V30    10.0   1_565     S
V23     V29    10.0   1_665     S
V23     V26    10.0   1_665     S
V23     V31    10.0   1_565     S
V24     V30    10.0   1_665     S
V24     V25    10.0   1_666     S
V24     V19    10.0   1_556     S
V24     V32    10.0   1_565     S
V25     V17    10.0   1_545     S
V25     V30    10.0   1_554     S
V25     V29    10.0   .     S
V25     V24    10.0   1_444     S
V25     V19    10.0   1_445     S
V26     V18    10.0   1_545     S
V26     V29    10.0   .     S
V26     V30    10.0   .     S
V26     V23    10.0   1_445     S
V26     V20    10.0   1_445     S
V27     V19    10.0   1_545     S
V27     V32    10.0   1_554     S
V27     V31    10.0   .     S
V27     V22    10.0   1_544     S
V27     V17    10.0   1_545     S
V28     V20    10.0   1_545     S
V28     V31    10.0   .     S
V28     V32    10.0   .     S
V28     V21    10.0   1_545     S
V28     V18    10.0   1_545     S
V29     V23    10.0   1_445     S
V29     V18    10.0   1_545     S
V29     V21    10.0   1_545     S
V30     V25    10.0   1_556     S
V30     V24    10.0   1_445     S
V30     V17    10.0   1_546     S
V30     V22    10.0   1_545     S
V31     V21    10.0   1_545     S
V31     V20    10.0   1_545     S
V31     V23    10.0   1_545     S
V32     V27    10.0   1_556     S
V32     V22    10.0   1_545     S
V32     V19    10.0   1_546     S
V32     V24    10.0   1_545     S
