data_vmj
_audit_creation_date              2019-12-31
_audit_creation_method            'Pymatgen'
_symmetry_space_group_name_H-M    'P1'
_symmetry_Int_Tables_number       1
loop_
_symmetry_equiv_pos_as_xyz
  x,y,z
_cell_length_a                    29.1767
_cell_length_b                    33.3644
_cell_length_c                    39.004
_cell_angle_alpha                 90.0
_cell_angle_beta                 102.8702
_cell_angle_gamma                 90.0
loop_
_atom_site_label
_atom_site_type_symbol
_atom_site_fract_x
_atom_site_fract_y
_atom_site_fract_z
V1     V     0.4214   0.4082   0.4033
V2     V     0.4214   0.4082   0.9033
V3     V     0.4214   0.9082   0.4033
V4     V     0.4214   0.9082   0.9033
V5     V     0.5786   0.0918   0.0967
V6     V     0.5786   0.0918   0.5967
V7     V     0.5786   0.5918   0.0967
V8     V     0.5786   0.5918   0.5967
V9     V     0.4214   0.3418   0.1533
V10     V     0.4214   0.3418   0.6533
V11     V     0.4214   0.8418   0.1533
V12     V     0.4214   0.8418   0.6533
V13     V     0.5786   0.1582   0.3467
V14     V     0.5786   0.1582   0.8467
V15     V     0.5786   0.6582   0.3467
V16     V     0.5786   0.6582   0.8467
V17     V     0.0786   0.3418   0.3467
V18     V     0.0786   0.3418   0.8467
V19     V     0.0786   0.8418   0.3467
V20     V     0.0786   0.8418   0.8467
V21     V     0.9214   0.1582   0.1533
V22     V     0.9214   0.1582   0.6533
V23     V     0.9214   0.6582   0.1533
V24     V     0.9214   0.6582   0.6533
V25     V     0.0786   0.4082   0.0967
V26     V     0.0786   0.4082   0.5967
V27     V     0.0786   0.9082   0.0967
V28     V     0.0786   0.9082   0.5967
V29     V     0.9214   0.0918   0.4033
V30     V     0.9214   0.0918   0.9033
V31     V     0.9214   0.5918   0.4033
V32     V     0.9214   0.5918   0.9033
loop_
_geom_bond_atom_site_label_1
_geom_bond_atom_site_label_2
_geom_bond_distance
_geom_bond_site_symmetry_2
_ccdc_geom_bond_type
V1     V10    10.0   .     S
V1     V9    10.0   .     S
V1     V13    10.0   .     S
V1     V15    10.0   .     S
V1     V8    10.0   .     S
V1     V17    10.0   .     S
V2     V9    10.0   1_556     S
V2     V10    10.0   .     S
V2     V14    10.0   .     S
V2     V16    10.0   .     S
V2     V7    10.0   1_556     S
V2     V18    10.0   .     S
V3     V12    10.0   .     S
V3     V11    10.0   .     S
V3     V15    10.0   .     S
V3     V13    10.0   1_565     S
V3     V6    10.0   1_565     S
V3     V19    10.0   .     S
V4     V11    10.0   1_556     S
V4     V12    10.0   .     S
V4     V16    10.0   .     S
V4     V14    10.0   1_565     S
V4     V5    10.0   1_566     S
V4     V20    10.0   .     S
V5     V11    10.0   1_545     S
V5     V14    10.0   1_554     S
V5     V4    10.0   1_544     S
V5     V13    10.0   .     S
V5     V9    10.0   .     S
V5     V21    10.0   .     S
V6     V12    10.0   1_545     S
V6     V13    10.0   .     S
V6     V3    10.0   1_545     S
V6     V14    10.0   .     S
V6     V10    10.0   .     S
V6     V22    10.0   .     S
V7     V9    10.0   .     S
V7     V16    10.0   1_554     S
V7     V2    10.0   1_554     S
V7     V15    10.0   .     S
V7     V11    10.0   .     S
V7     V23    10.0   .     S
V8     V10    10.0   .     S
V8     V15    10.0   .     S
V8     V16    10.0   .     S
V8     V12    10.0   .     S
V8     V24    10.0   .     S
V9     V2    10.0   1_554     S
V9     V13    10.0   .     S
V9     V25    10.0   .     S
V10     V14    10.0   .     S
V10     V26    10.0   .     S
V11     V4    10.0   1_554     S
V11     V5    10.0   1_565     S
V11     V15    10.0   .     S
V11     V27    10.0   .     S
V12     V6    10.0   1_565     S
V12     V16    10.0   .     S
V12     V28    10.0   .     S
V13     V3    10.0   1_545     S
V13     V29    10.0   .     S
V14     V5    10.0   1_556     S
V14     V4    10.0   1_545     S
V14     V30    10.0   .     S
V15     V31    10.0   .     S
V16     V7    10.0   1_556     S
V16     V32    10.0   .     S
V17     V26    10.0   .     S
V17     V31    10.0   1_455     S
V17     V25    10.0   .     S
V17     V21    10.0   1_455     S
V17     V29    10.0   1_455     S
V18     V25    10.0   1_556     S
V18     V32    10.0   1_455     S
V18     V26    10.0   .     S
V18     V22    10.0   1_455     S
V18     V30    10.0   1_455     S
V19     V28    10.0   .     S
V19     V29    10.0   1_465     S
V19     V27    10.0   .     S
V19     V23    10.0   1_455     S
V19     V31    10.0   1_455     S
V20     V27    10.0   1_556     S
V20     V30    10.0   1_465     S
V20     V28    10.0   .     S
V20     V24    10.0   1_455     S
V20     V32    10.0   1_455     S
V21     V25    10.0   1_655     S
V21     V17    10.0   1_655     S
V21     V29    10.0   .     S
V21     V30    10.0   1_554     S
V21     V27    10.0   1_645     S
V22     V26    10.0   1_655     S
V22     V18    10.0   1_655     S
V22     V30    10.0   .     S
V22     V29    10.0   .     S
V22     V28    10.0   1_645     S
V23     V27    10.0   1_655     S
V23     V19    10.0   1_655     S
V23     V31    10.0   .     S
V23     V32    10.0   1_554     S
V23     V25    10.0   1_655     S
V24     V28    10.0   1_655     S
V24     V20    10.0   1_655     S
V24     V32    10.0   .     S
V24     V31    10.0   .     S
V24     V26    10.0   1_655     S
V25     V18    10.0   1_554     S
V25     V21    10.0   1_455     S
V25     V23    10.0   1_455     S
V25     V32    10.0   1_454     S
V26     V22    10.0   1_455     S
V26     V24    10.0   1_455     S
V26     V31    10.0   1_455     S
V27     V20    10.0   1_554     S
V27     V23    10.0   1_455     S
V27     V21    10.0   1_465     S
V27     V30    10.0   1_464     S
V28     V24    10.0   1_455     S
V28     V22    10.0   1_465     S
V28     V29    10.0   1_465     S
V29     V19    10.0   1_645     S
V29     V17    10.0   1_655     S
V29     V28    10.0   1_645     S
V30     V20    10.0   1_645     S
V30     V18    10.0   1_655     S
V30     V21    10.0   1_556     S
V30     V27    10.0   1_646     S
V31     V17    10.0   1_655     S
V31     V19    10.0   1_655     S
V31     V26    10.0   1_655     S
V32     V18    10.0   1_655     S
V32     V20    10.0   1_655     S
V32     V23    10.0   1_556     S
V32     V25    10.0   1_656     S
