data_vmk
_audit_creation_date              2019-12-31
_audit_creation_method            'Pymatgen'
_symmetry_space_group_name_H-M    'P1'
_symmetry_Int_Tables_number       1
loop_
_symmetry_equiv_pos_as_xyz
  x,y,z
_cell_length_a                    24.5091
_cell_length_b                    22.9762
_cell_length_c                    29.3184
_cell_angle_alpha                 90.0
_cell_angle_beta                 92.3768
_cell_angle_gamma                 90.0
loop_
_atom_site_label
_atom_site_type_symbol
_atom_site_fract_x
_atom_site_fract_y
_atom_site_fract_z
V1     V     0.8993   0.102   0.1215
V2     V     0.8993   0.102   0.6215
V3     V     0.1007   0.898   0.3785
V4     V     0.1007   0.898   0.8785
V5     V     0.3993   0.898   0.1215
V6     V     0.3993   0.898   0.6215
V7     V     0.6007   0.102   0.3785
V8     V     0.6007   0.102   0.8785
V9     V     0.3993   0.602   0.3715
V10     V     0.3993   0.602   0.8715
V11     V     0.6007   0.398   0.1285
V12     V     0.6007   0.398   0.6285
V13     V     0.1007   0.602   0.1285
V14     V     0.1007   0.602   0.6285
V15     V     0.8993   0.398   0.3715
V16     V     0.8993   0.398   0.8715
loop_
_geom_bond_atom_site_label_1
_geom_bond_atom_site_label_2
_geom_bond_distance
_geom_bond_site_symmetry_2
_ccdc_geom_bond_type
V1     V11    10.0   .     S
V1     V15    10.0   .     S
V1     V16    10.0   1_554     S
V1     V3    10.0   1_645     S
V1     V8    10.0   1_554     S
V1     V4    10.0   1_644     S
V2     V12    10.0   .     S
V2     V16    10.0   .     S
V2     V15    10.0   .     S
V2     V4    10.0   1_645     S
V2     V7    10.0   .     S
V2     V3    10.0   1_645     S
V3     V9    10.0   .     S
V3     V13    10.0   .     S
V3     V1    10.0   1_465     S
V3     V6    10.0   .     S
V3     V2    10.0   1_465     S
V3     V14    10.0   .     S
V4     V10    10.0   .     S
V4     V14    10.0   .     S
V4     V2    10.0   1_465     S
V4     V5    10.0   1_556     S
V4     V1    10.0   1_466     S
V4     V13    10.0   1_556     S
V5     V10    10.0   1_554     S
V5     V7    10.0   1_565     S
V5     V4    10.0   1_554     S
V5     V8    10.0   1_564     S
V5     V13    10.0   .     S
V5     V9    10.0   .     S
V6     V9    10.0   .     S
V6     V8    10.0   1_565     S
V6     V7    10.0   1_565     S
V6     V14    10.0   .     S
V6     V10    10.0   .     S
V7     V12    10.0   .     S
V7     V15    10.0   .     S
V7     V11    10.0   .     S
V7     V5    10.0   1_545     S
V7     V6    10.0   1_545     S
V8     V11    10.0   1_556     S
V8     V16    10.0   .     S
V8     V12    10.0   .     S
V8     V6    10.0   1_545     S
V8     V1    10.0   1_556     S
V8     V5    10.0   1_546     S
V9     V12    10.0   .     S
V9     V13    10.0   .     S
V9     V11    10.0   .     S
V10     V5    10.0   1_556     S
V10     V11    10.0   1_556     S
V10     V14    10.0   .     S
V10     V12    10.0   .     S
V11     V8    10.0   1_554     S
V11     V10    10.0   1_554     S
V11     V15    10.0   .     S
V12     V16    10.0   .     S
V13     V4    10.0   1_554     S
V13     V16    10.0   1_454     S
V13     V15    10.0   1_455     S
V14     V15    10.0   1_455     S
V14     V16    10.0   1_455     S
V15     V14    10.0   1_655     S
V15     V13    10.0   1_655     S
V16     V1    10.0   1_556     S
V16     V13    10.0   1_656     S
V16     V14    10.0   1_655     S
