data_vml
_audit_creation_date              2019-12-31
_audit_creation_method            'Pymatgen'
_symmetry_space_group_name_H-M    'P1'
_symmetry_Int_Tables_number       1
loop_
_symmetry_equiv_pos_as_xyz
  x,y,z
_cell_length_a                    38.5158
_cell_length_b                    33.3334
_cell_length_c                    26.7436
_cell_angle_alpha                 90.0
_cell_angle_beta                 96.7824
_cell_angle_gamma                 90.0
loop_
_atom_site_label
_atom_site_type_symbol
_atom_site_fract_x
_atom_site_fract_y
_atom_site_fract_z
V1     V     0.0444   0.2095   0.3391
V2     V     0.0444   0.7095   0.3391
V3     V     0.5444   0.2095   0.3391
V4     V     0.5444   0.7095   0.3391
V5     V     0.4556   0.4595   0.1609
V6     V     0.4556   0.9595   0.1609
V7     V     0.9556   0.4595   0.1609
V8     V     0.9556   0.9595   0.1609
V9     V     0.2056   0.0405   0.1609
V10     V     0.2056   0.5405   0.1609
V11     V     0.7056   0.0405   0.1609
V12     V     0.7056   0.5405   0.1609
V13     V     0.2944   0.2905   0.3391
V14     V     0.2944   0.7905   0.3391
V15     V     0.7944   0.2905   0.3391
V16     V     0.7944   0.7905   0.3391
V17     V     0.0444   0.0405   0.8391
V18     V     0.0444   0.5405   0.8391
V19     V     0.5444   0.0405   0.8391
V20     V     0.5444   0.5405   0.8391
V21     V     0.4556   0.2905   0.6609
V22     V     0.4556   0.7905   0.6609
V23     V     0.9556   0.2905   0.6609
V24     V     0.9556   0.7905   0.6609
V25     V     0.2056   0.2095   0.6609
V26     V     0.2056   0.7095   0.6609
V27     V     0.7056   0.2095   0.6609
V28     V     0.7056   0.7095   0.6609
V29     V     0.2944   0.4595   0.8391
V30     V     0.2944   0.9595   0.8391
V31     V     0.7944   0.4595   0.8391
V32     V     0.7944   0.9595   0.8391
loop_
_geom_bond_atom_site_label_1
_geom_bond_atom_site_label_2
_geom_bond_distance
_geom_bond_site_symmetry_2
_ccdc_geom_bond_type
V1     V9    10.0   .     S
V1     V13    10.0   .     S
V1     V7    10.0   1_455     S
V1     V8    10.0   1_445     S
V1     V15    10.0   1_455     S
V1     V23    10.0   1_455     S
V1     V25    10.0   .     S
V2     V10    10.0   .     S
V2     V14    10.0   .     S
V2     V8    10.0   1_455     S
V2     V7    10.0   1_455     S
V2     V16    10.0   1_455     S
V2     V24    10.0   1_455     S
V2     V26    10.0   .     S
V3     V11    10.0   .     S
V3     V15    10.0   .     S
V3     V5    10.0   .     S
V3     V6    10.0   1_545     S
V3     V13    10.0   .     S
V3     V21    10.0   .     S
V3     V27    10.0   .     S
V4     V12    10.0   .     S
V4     V16    10.0   .     S
V4     V6    10.0   .     S
V4     V5    10.0   .     S
V4     V14    10.0   .     S
V4     V22    10.0   .     S
V4     V28    10.0   .     S
V5     V12    10.0   .     S
V5     V13    10.0   .     S
V5     V10    10.0   .     S
V5     V20    10.0   1_554     S
V5     V29    10.0   1_554     S
V6     V11    10.0   1_565     S
V6     V3    10.0   1_565     S
V6     V14    10.0   .     S
V6     V9    10.0   1_565     S
V6     V19    10.0   1_564     S
V6     V30    10.0   1_554     S
V7     V10    10.0   1_655     S
V7     V1    10.0   1_655     S
V7     V2    10.0   1_655     S
V7     V15    10.0   .     S
V7     V12    10.0   .     S
V7     V18    10.0   1_654     S
V7     V31    10.0   1_554     S
V8     V9    10.0   1_665     S
V8     V2    10.0   1_655     S
V8     V1    10.0   1_665     S
V8     V16    10.0   .     S
V8     V11    10.0   1_565     S
V8     V17    10.0   1_664     S
V8     V32    10.0   1_554     S
V9     V8    10.0   1_445     S
V9     V14    10.0   1_545     S
V9     V13    10.0   .     S
V9     V6    10.0   1_545     S
V9     V30    10.0   1_544     S
V9     V17    10.0   1_554     S
V10     V7    10.0   1_455     S
V10     V13    10.0   .     S
V10     V14    10.0   .     S
V10     V29    10.0   1_554     S
V10     V18    10.0   1_554     S
V11     V6    10.0   1_545     S
V11     V16    10.0   1_545     S
V11     V15    10.0   .     S
V11     V8    10.0   1_545     S
V11     V32    10.0   1_544     S
V11     V19    10.0   1_554     S
V12     V15    10.0   .     S
V12     V16    10.0   .     S
V12     V31    10.0   1_554     S
V12     V20    10.0   1_554     S
V13     V25    10.0   .     S
V13     V21    10.0   .     S
V14     V9    10.0   1_565     S
V14     V26    10.0   .     S
V14     V22    10.0   .     S
V15     V1    10.0   1_655     S
V15     V27    10.0   .     S
V15     V23    10.0   .     S
V16     V11    10.0   1_565     S
V16     V2    10.0   1_655     S
V16     V28    10.0   .     S
V16     V24    10.0   .     S
V17     V9    10.0   1_556     S
V17     V8    10.0   1_446     S
V17     V24    10.0   1_445     S
V17     V23    10.0   1_455     S
V17     V32    10.0   1_445     S
V17     V25    10.0   .     S
V17     V30    10.0   1_545     S
V18     V10    10.0   1_556     S
V18     V7    10.0   1_456     S
V18     V23    10.0   1_455     S
V18     V24    10.0   1_455     S
V18     V31    10.0   1_455     S
V18     V26    10.0   .     S
V18     V29    10.0   .     S
V19     V11    10.0   1_556     S
V19     V6    10.0   1_546     S
V19     V22    10.0   1_545     S
V19     V21    10.0   .     S
V19     V30    10.0   1_545     S
V19     V27    10.0   .     S
V19     V32    10.0   1_545     S
V20     V12    10.0   1_556     S
V20     V5    10.0   1_556     S
V20     V21    10.0   .     S
V20     V22    10.0   .     S
V20     V29    10.0   .     S
V20     V28    10.0   .     S
V20     V31    10.0   .     S
V21     V25    10.0   .     S
V21     V29    10.0   .     S
V21     V27    10.0   .     S
V22     V19    10.0   1_565     S
V22     V26    10.0   .     S
V22     V30    10.0   .     S
V22     V28    10.0   .     S
V23     V18    10.0   1_655     S
V23     V17    10.0   1_655     S
V23     V27    10.0   .     S
V23     V31    10.0   .     S
V23     V25    10.0   1_655     S
V23     V1    10.0   1_655     S
V24     V17    10.0   1_665     S
V24     V18    10.0   1_655     S
V24     V28    10.0   .     S
V24     V32    10.0   .     S
V24     V26    10.0   1_655     S
V24     V2    10.0   1_655     S
V25     V23    10.0   1_455     S
V25     V29    10.0   .     S
V25     V30    10.0   1_545     S
V26     V24    10.0   1_455     S
V26     V30    10.0   .     S
V26     V29    10.0   .     S
V27     V31    10.0   .     S
V27     V32    10.0   1_545     S
V28     V32    10.0   .     S
V28     V31    10.0   .     S
V29     V10    10.0   1_556     S
V29     V5    10.0   1_556     S
V30     V9    10.0   1_566     S
V30     V6    10.0   1_556     S
V30     V19    10.0   1_565     S
V30     V17    10.0   1_565     S
V30     V25    10.0   1_565     S
V31     V12    10.0   1_556     S
V31     V7    10.0   1_556     S
V31     V18    10.0   1_655     S
V32     V11    10.0   1_566     S
V32     V8    10.0   1_556     S
V32     V17    10.0   1_665     S
V32     V19    10.0   1_565     S
V32     V27    10.0   1_565     S
