data_vmm
_audit_creation_date              2019-12-31
_audit_creation_method            'Pymatgen'
_symmetry_space_group_name_H-M    'P1'
_symmetry_Int_Tables_number       1
loop_
_symmetry_equiv_pos_as_xyz
  x,y,z
_cell_length_a                    30.0
_cell_length_b                    26.8919
_cell_length_c                    27.8752
_cell_angle_alpha                 90.0
_cell_angle_beta                 103.4476
_cell_angle_gamma                 90.0
loop_
_atom_site_label
_atom_site_type_symbol
_atom_site_fract_x
_atom_site_fract_y
_atom_site_fract_z
V1     V     0.2262   0.6166   0.1399
V2     V     0.2262   0.6166   0.6399
V3     V     0.5595   0.6166   0.1399
V4     V     0.5595   0.6166   0.6399
V5     V     0.8929   0.6166   0.1399
V6     V     0.8929   0.6166   0.6399
V7     V     0.1071   0.3833   0.3601
V8     V     0.1071   0.3833   0.8601
V9     V     0.4405   0.3833   0.3601
V10     V     0.4405   0.3833   0.8601
V11     V     0.7738   0.3833   0.3601
V12     V     0.7738   0.3833   0.8601
V13     V     0.1071   0.1166   0.1101
V14     V     0.1071   0.1166   0.6101
V15     V     0.4405   0.1166   0.1101
V16     V     0.4405   0.1166   0.6101
V17     V     0.7738   0.1166   0.1101
V18     V     0.7738   0.1166   0.6101
V19     V     0.2262   0.8834   0.3899
V20     V     0.2262   0.8834   0.8899
V21     V     0.5595   0.8834   0.3899
V22     V     0.5595   0.8834   0.8899
V23     V     0.8929   0.8834   0.3899
V24     V     0.8929   0.8834   0.8899
loop_
_geom_bond_atom_site_label_1
_geom_bond_atom_site_label_2
_geom_bond_distance
_geom_bond_site_symmetry_2
_ccdc_geom_bond_type
V1     V8    10.0   1_554     S
V1     V9    10.0   .     S
V1     V5    10.0   1_455     S
V1     V3    10.0   .     S
V1     V7    10.0   .     S
V1     V20    10.0   1_554     S
V1     V19    10.0   .     S
V2     V7    10.0   .     S
V2     V10    10.0   .     S
V2     V6    10.0   1_455     S
V2     V4    10.0   .     S
V2     V8    10.0   .     S
V2     V19    10.0   .     S
V2     V20    10.0   .     S
V3     V10    10.0   1_554     S
V3     V11    10.0   .     S
V3     V5    10.0   .     S
V3     V9    10.0   .     S
V3     V22    10.0   1_554     S
V3     V21    10.0   .     S
V4     V9    10.0   .     S
V4     V12    10.0   .     S
V4     V6    10.0   .     S
V4     V10    10.0   .     S
V4     V21    10.0   .     S
V4     V22    10.0   .     S
V5     V12    10.0   1_554     S
V5     V7    10.0   1_655     S
V5     V1    10.0   1_655     S
V5     V11    10.0   .     S
V5     V24    10.0   1_554     S
V5     V23    10.0   .     S
V6     V11    10.0   .     S
V6     V8    10.0   1_655     S
V6     V2    10.0   1_655     S
V6     V12    10.0   .     S
V6     V23    10.0   .     S
V6     V24    10.0   .     S
V7     V5    10.0   1_455     S
V7     V9    10.0   .     S
V7     V11    10.0   1_455     S
V7     V13    10.0   .     S
V7     V14    10.0   .     S
V8     V1    10.0   1_556     S
V8     V6    10.0   1_455     S
V8     V10    10.0   .     S
V8     V12    10.0   1_455     S
V8     V14    10.0   .     S
V8     V13    10.0   1_556     S
V9     V11    10.0   .     S
V9     V15    10.0   .     S
V9     V16    10.0   .     S
V10     V3    10.0   1_556     S
V10     V12    10.0   .     S
V10     V16    10.0   .     S
V10     V15    10.0   1_556     S
V11     V7    10.0   1_655     S
V11     V17    10.0   .     S
V11     V18    10.0   .     S
V12     V5    10.0   1_556     S
V12     V8    10.0   1_655     S
V12     V18    10.0   .     S
V12     V17    10.0   1_556     S
V13     V19    10.0   1_545     S
V13     V24    10.0   1_444     S
V13     V20    10.0   1_544     S
V13     V15    10.0   .     S
V13     V17    10.0   1_455     S
V13     V8    10.0   1_554     S
V14     V20    10.0   1_545     S
V14     V23    10.0   1_445     S
V14     V19    10.0   1_545     S
V14     V16    10.0   .     S
V14     V18    10.0   1_455     S
V15     V21    10.0   1_545     S
V15     V20    10.0   1_544     S
V15     V22    10.0   1_544     S
V15     V17    10.0   .     S
V15     V10    10.0   1_554     S
V16     V22    10.0   1_545     S
V16     V19    10.0   1_545     S
V16     V21    10.0   1_545     S
V16     V18    10.0   .     S
V17     V23    10.0   1_545     S
V17     V22    10.0   1_544     S
V17     V24    10.0   1_544     S
V17     V13    10.0   1_655     S
V17     V12    10.0   1_554     S
V18     V24    10.0   1_545     S
V18     V21    10.0   1_545     S
V18     V23    10.0   1_545     S
V18     V14    10.0   1_655     S
V19     V13    10.0   1_565     S
V19     V16    10.0   1_565     S
V19     V23    10.0   1_455     S
V19     V21    10.0   .     S
V19     V14    10.0   1_565     S
V20     V14    10.0   1_565     S
V20     V15    10.0   1_566     S
V20     V24    10.0   1_455     S
V20     V22    10.0   .     S
V20     V13    10.0   1_566     S
V20     V1    10.0   1_556     S
V21     V15    10.0   1_565     S
V21     V18    10.0   1_565     S
V21     V23    10.0   .     S
V21     V16    10.0   1_565     S
V22     V16    10.0   1_565     S
V22     V17    10.0   1_566     S
V22     V24    10.0   .     S
V22     V15    10.0   1_566     S
V22     V3    10.0   1_556     S
V23     V17    10.0   1_565     S
V23     V14    10.0   1_665     S
V23     V19    10.0   1_655     S
V23     V18    10.0   1_565     S
V24     V18    10.0   1_565     S
V24     V13    10.0   1_666     S
V24     V20    10.0   1_655     S
V24     V17    10.0   1_566     S
V24     V5    10.0   1_556     S
