data_vmo
_audit_creation_date              2019-12-31
_audit_creation_method            'Pymatgen'
_symmetry_space_group_name_H-M    'P1'
_symmetry_Int_Tables_number       1
loop_
_symmetry_equiv_pos_as_xyz
  x,y,z
_cell_length_a                    35.569
_cell_length_b                    33.1873
_cell_length_c                    28.2842
_cell_angle_alpha                 90.0
_cell_angle_beta                 107.7751
_cell_angle_gamma                 90.0
loop_
_atom_site_label
_atom_site_type_symbol
_atom_site_fract_x
_atom_site_fract_y
_atom_site_fract_z
V1     V     0.3956   0.6065   0.4599
V2     V     0.3956   0.6065   0.9599
V3     V     0.8956   0.6065   0.4599
V4     V     0.8956   0.6065   0.9599
V5     V     0.3956   0.3935   0.2099
V6     V     0.3956   0.3935   0.7099
V7     V     0.8956   0.3935   0.2099
V8     V     0.8956   0.3935   0.7099
V9     V     0.1044   0.6065   0.2901
V10     V     0.1044   0.6065   0.7901
V11     V     0.6044   0.6065   0.2901
V12     V     0.6044   0.6065   0.7901
V13     V     0.1044   0.3935   0.0401
V14     V     0.1044   0.3935   0.5401
V15     V     0.6044   0.3935   0.0401
V16     V     0.6044   0.3935   0.5401
V17     V     0.3544   0.1065   0.2901
V18     V     0.3544   0.1065   0.7901
V19     V     0.8544   0.1065   0.2901
V20     V     0.8544   0.1065   0.7901
V21     V     0.3544   0.8935   0.0401
V22     V     0.3544   0.8935   0.5401
V23     V     0.8544   0.8935   0.0401
V24     V     0.8544   0.8935   0.5401
V25     V     0.1456   0.8935   0.2099
V26     V     0.1456   0.8935   0.7099
V27     V     0.6456   0.8935   0.2099
V28     V     0.6456   0.8935   0.7099
V29     V     0.1456   0.1065   0.4599
V30     V     0.1456   0.1065   0.9599
V31     V     0.6456   0.1065   0.4599
V32     V     0.6456   0.1065   0.9599
loop_
_geom_bond_atom_site_label_1
_geom_bond_atom_site_label_2
_geom_bond_distance
_geom_bond_site_symmetry_2
_ccdc_geom_bond_type
V1     V16    10.0   .     S
V1     V11    10.0   .     S
V1     V12    10.0   .     S
V1     V6    10.0   .     S
V1     V5    10.0   .     S
V1     V9    10.0   .     S
V1     V22    10.0   .     S
V2     V15    10.0   1_556     S
V2     V12    10.0   .     S
V2     V11    10.0   1_556     S
V2     V5    10.0   1_556     S
V2     V6    10.0   .     S
V2     V10    10.0   .     S
V2     V21    10.0   1_556     S
V3     V14    10.0   1_655     S
V3     V9    10.0   1_655     S
V3     V10    10.0   1_655     S
V3     V8    10.0   .     S
V3     V7    10.0   .     S
V3     V11    10.0   .     S
V3     V24    10.0   .     S
V4     V13    10.0   1_656     S
V4     V10    10.0   1_655     S
V4     V9    10.0   1_656     S
V4     V7    10.0   1_556     S
V4     V8    10.0   .     S
V4     V12    10.0   .     S
V4     V23    10.0   1_556     S
V5     V11    10.0   .     S
V5     V16    10.0   .     S
V5     V15    10.0   .     S
V5     V2    10.0   1_554     S
V5     V13    10.0   .     S
V5     V17    10.0   .     S
V6     V12    10.0   .     S
V6     V15    10.0   1_556     S
V6     V16    10.0   .     S
V6     V14    10.0   .     S
V6     V18    10.0   .     S
V7     V9    10.0   1_655     S
V7     V14    10.0   1_655     S
V7     V13    10.0   1_655     S
V7     V4    10.0   1_554     S
V7     V15    10.0   .     S
V7     V19    10.0   .     S
V8     V10    10.0   1_655     S
V8     V13    10.0   1_656     S
V8     V14    10.0   1_655     S
V8     V16    10.0   .     S
V8     V20    10.0   .     S
V9     V3    10.0   1_455     S
V9     V4    10.0   1_454     S
V9     V7    10.0   1_455     S
V9     V14    10.0   .     S
V9     V13    10.0   .     S
V9     V25    10.0   .     S
V10     V4    10.0   1_455     S
V10     V3    10.0   1_455     S
V10     V8    10.0   1_455     S
V10     V13    10.0   1_556     S
V10     V14    10.0   .     S
V10     V26    10.0   .     S
V11     V2    10.0   1_554     S
V11     V16    10.0   .     S
V11     V15    10.0   .     S
V11     V27    10.0   .     S
V12     V15    10.0   1_556     S
V12     V16    10.0   .     S
V12     V28    10.0   .     S
V13     V4    10.0   1_454     S
V13     V8    10.0   1_454     S
V13     V7    10.0   1_455     S
V13     V10    10.0   1_554     S
V13     V30    10.0   1_554     S
V14     V3    10.0   1_455     S
V14     V7    10.0   1_455     S
V14     V8    10.0   1_455     S
V14     V29    10.0   .     S
V15     V2    10.0   1_554     S
V15     V6    10.0   1_554     S
V15     V12    10.0   1_554     S
V15     V32    10.0   1_554     S
V16     V31    10.0   .     S
V17     V30    10.0   1_554     S
V17     V25    10.0   1_545     S
V17     V29    10.0   .     S
V17     V21    10.0   1_545     S
V17     V22    10.0   1_545     S
V17     V31    10.0   .     S
V18     V29    10.0   .     S
V18     V26    10.0   1_545     S
V18     V30    10.0   .     S
V18     V22    10.0   1_545     S
V18     V21    10.0   1_546     S
V18     V32    10.0   .     S
V19     V32    10.0   1_554     S
V19     V27    10.0   1_545     S
V19     V31    10.0   .     S
V19     V23    10.0   1_545     S
V19     V24    10.0   1_545     S
V19     V29    10.0   1_655     S
V20     V31    10.0   .     S
V20     V28    10.0   1_545     S
V20     V32    10.0   .     S
V20     V24    10.0   1_545     S
V20     V23    10.0   1_546     S
V20     V30    10.0   1_655     S
V21     V30    10.0   1_564     S
V21     V26    10.0   1_554     S
V21     V25    10.0   .     S
V21     V17    10.0   1_565     S
V21     V18    10.0   1_564     S
V21     V27    10.0   .     S
V21     V2    10.0   1_554     S
V22     V29    10.0   1_565     S
V22     V25    10.0   .     S
V22     V26    10.0   .     S
V22     V18    10.0   1_565     S
V22     V17    10.0   1_565     S
V22     V28    10.0   .     S
V23     V32    10.0   1_564     S
V23     V28    10.0   1_554     S
V23     V27    10.0   .     S
V23     V19    10.0   1_565     S
V23     V20    10.0   1_564     S
V23     V25    10.0   1_655     S
V23     V4    10.0   1_554     S
V24     V31    10.0   1_565     S
V24     V27    10.0   .     S
V24     V28    10.0   .     S
V24     V20    10.0   1_565     S
V24     V19    10.0   1_565     S
V24     V26    10.0   1_655     S
V25     V17    10.0   1_565     S
V25     V30    10.0   1_564     S
V25     V29    10.0   1_565     S
V25     V23    10.0   1_455     S
V26     V21    10.0   1_556     S
V26     V18    10.0   1_565     S
V26     V29    10.0   1_565     S
V26     V30    10.0   1_565     S
V26     V24    10.0   1_455     S
V27     V19    10.0   1_565     S
V27     V32    10.0   1_564     S
V27     V31    10.0   1_565     S
V28     V23    10.0   1_556     S
V28     V20    10.0   1_565     S
V28     V31    10.0   1_565     S
V28     V32    10.0   1_565     S
V29     V22    10.0   1_545     S
V29     V19    10.0   1_455     S
V29     V26    10.0   1_545     S
V29     V25    10.0   1_545     S
V30     V13    10.0   1_556     S
V30     V21    10.0   1_546     S
V30     V17    10.0   1_556     S
V30     V20    10.0   1_455     S
V30     V25    10.0   1_546     S
V30     V26    10.0   1_545     S
V31     V24    10.0   1_545     S
V31     V28    10.0   1_545     S
V31     V27    10.0   1_545     S
V32     V15    10.0   1_556     S
V32     V23    10.0   1_546     S
V32     V19    10.0   1_556     S
V32     V27    10.0   1_546     S
V32     V28    10.0   1_545     S
