data_vmp
_audit_creation_date              2019-12-31
_audit_creation_method            'Pymatgen'
_symmetry_space_group_name_H-M    'P1'
_symmetry_Int_Tables_number       1
loop_
_symmetry_equiv_pos_as_xyz
  x,y,z
_cell_length_a                    30.0
_cell_length_b                    39.5916
_cell_length_c                    37.955
_cell_angle_alpha                 90.0
_cell_angle_beta                 101.5999
_cell_angle_gamma                 90.0
loop_
_atom_site_label
_atom_site_type_symbol
_atom_site_fract_x
_atom_site_fract_y
_atom_site_fract_z
V1     V     0.113   0.8737   0.1165
V2     V     0.113   0.8737   0.6165
V3     V     0.4463   0.8737   0.1165
V4     V     0.4463   0.8737   0.6165
V5     V     0.7796   0.8737   0.1165
V6     V     0.7796   0.8737   0.6165
V7     V     0.2204   0.8737   0.3835
V8     V     0.2204   0.8737   0.8835
V9     V     0.5537   0.8737   0.3835
V10     V     0.5537   0.8737   0.8835
V11     V     0.887   0.8737   0.3835
V12     V     0.887   0.8737   0.8835
V13     V     0.0537   0.6263   0.1335
V14     V     0.0537   0.6263   0.6335
V15     V     0.387   0.6263   0.1335
V16     V     0.387   0.6263   0.6335
V17     V     0.7204   0.6263   0.1335
V18     V     0.7204   0.6263   0.6335
V19     V     0.2796   0.6263   0.3665
V20     V     0.2796   0.6263   0.8665
V21     V     0.613   0.6263   0.3665
V22     V     0.613   0.6263   0.8665
V23     V     0.9463   0.6263   0.3665
V24     V     0.9463   0.6263   0.8665
V25     V     0.0537   0.3737   0.1335
V26     V     0.0537   0.3737   0.6335
V27     V     0.387   0.3737   0.1335
V28     V     0.387   0.3737   0.6335
V29     V     0.7204   0.3737   0.1335
V30     V     0.7204   0.3737   0.6335
V31     V     0.2796   0.3737   0.3665
V32     V     0.2796   0.3737   0.8665
V33     V     0.613   0.3737   0.3665
V34     V     0.613   0.3737   0.8665
V35     V     0.9463   0.3737   0.3665
V36     V     0.9463   0.3737   0.8665
V37     V     0.113   0.1263   0.1165
V38     V     0.113   0.1263   0.6165
V39     V     0.4463   0.1263   0.1165
V40     V     0.4463   0.1263   0.6165
V41     V     0.7796   0.1263   0.1165
V42     V     0.7796   0.1263   0.6165
V43     V     0.2204   0.1263   0.3835
V44     V     0.2204   0.1263   0.8835
V45     V     0.5537   0.1263   0.3835
V46     V     0.5537   0.1263   0.8835
V47     V     0.887   0.1263   0.3835
V48     V     0.887   0.1263   0.8835
loop_
_geom_bond_atom_site_label_1
_geom_bond_atom_site_label_2
_geom_bond_distance
_geom_bond_site_symmetry_2
_ccdc_geom_bond_type
V1     V8    10.0   1_554     S
V1     V3    10.0   .     S
V1     V5    10.0   1_455     S
V1     V7    10.0   .     S
V1     V13    10.0   .     S
V1     V12    10.0   1_454     S
V1     V37    10.0   1_565     S
V2     V7    10.0   .     S
V2     V4    10.0   .     S
V2     V6    10.0   1_455     S
V2     V8    10.0   .     S
V2     V14    10.0   .     S
V2     V11    10.0   1_455     S
V2     V38    10.0   1_565     S
V3     V10    10.0   1_554     S
V3     V5    10.0   .     S
V3     V9    10.0   .     S
V3     V15    10.0   .     S
V3     V8    10.0   1_554     S
V3     V39    10.0   1_565     S
V4     V9    10.0   .     S
V4     V6    10.0   .     S
V4     V10    10.0   .     S
V4     V16    10.0   .     S
V4     V7    10.0   .     S
V4     V40    10.0   1_565     S
V5     V12    10.0   1_554     S
V5     V1    10.0   1_655     S
V5     V11    10.0   .     S
V5     V17    10.0   .     S
V5     V10    10.0   1_554     S
V5     V41    10.0   1_565     S
V6     V11    10.0   .     S
V6     V2    10.0   1_655     S
V6     V12    10.0   .     S
V6     V18    10.0   .     S
V6     V9    10.0   .     S
V6     V42    10.0   1_565     S
V7     V11    10.0   1_455     S
V7     V9    10.0   .     S
V7     V19    10.0   .     S
V7     V43    10.0   1_565     S
V8     V1    10.0   1_556     S
V8     V12    10.0   1_455     S
V8     V10    10.0   .     S
V8     V20    10.0   .     S
V8     V3    10.0   1_556     S
V8     V44    10.0   1_565     S
V9     V11    10.0   .     S
V9     V21    10.0   .     S
V9     V45    10.0   1_565     S
V10     V3    10.0   1_556     S
V10     V12    10.0   .     S
V10     V22    10.0   .     S
V10     V5    10.0   1_556     S
V10     V46    10.0   1_565     S
V11     V7    10.0   1_655     S
V11     V23    10.0   .     S
V11     V2    10.0   1_655     S
V11     V47    10.0   1_565     S
V12     V5    10.0   1_556     S
V12     V8    10.0   1_655     S
V12     V24    10.0   .     S
V12     V1    10.0   1_656     S
V12     V48    10.0   1_565     S
V13     V24    10.0   1_454     S
V13     V19    10.0   .     S
V13     V23    10.0   1_455     S
V13     V15    10.0   .     S
V13     V17    10.0   1_455     S
V13     V25    10.0   .     S
V14     V23    10.0   1_455     S
V14     V20    10.0   .     S
V14     V24    10.0   1_455     S
V14     V16    10.0   .     S
V14     V18    10.0   1_455     S
V14     V26    10.0   .     S
V15     V20    10.0   1_554     S
V15     V21    10.0   .     S
V15     V19    10.0   .     S
V15     V17    10.0   .     S
V15     V27    10.0   .     S
V16     V19    10.0   .     S
V16     V22    10.0   .     S
V16     V20    10.0   .     S
V16     V18    10.0   .     S
V16     V28    10.0   .     S
V17     V22    10.0   1_554     S
V17     V23    10.0   .     S
V17     V21    10.0   .     S
V17     V13    10.0   1_655     S
V17     V29    10.0   .     S
V18     V21    10.0   .     S
V18     V24    10.0   .     S
V18     V22    10.0   .     S
V18     V14    10.0   1_655     S
V18     V30    10.0   .     S
V19     V23    10.0   1_455     S
V19     V21    10.0   .     S
V19     V31    10.0   .     S
V20     V15    10.0   1_556     S
V20     V24    10.0   1_455     S
V20     V22    10.0   .     S
V20     V32    10.0   .     S
V21     V23    10.0   .     S
V21     V33    10.0   .     S
V22     V17    10.0   1_556     S
V22     V24    10.0   .     S
V22     V34    10.0   .     S
V23     V14    10.0   1_655     S
V23     V13    10.0   1_655     S
V23     V19    10.0   1_655     S
V23     V35    10.0   .     S
V24     V13    10.0   1_656     S
V24     V14    10.0   1_655     S
V24     V20    10.0   1_655     S
V24     V36    10.0   .     S
V25     V36    10.0   1_454     S
V25     V37    10.0   .     S
V25     V31    10.0   .     S
V25     V35    10.0   1_455     S
V25     V27    10.0   .     S
V25     V29    10.0   1_455     S
V26     V35    10.0   1_455     S
V26     V38    10.0   .     S
V26     V32    10.0   .     S
V26     V36    10.0   1_455     S
V26     V28    10.0   .     S
V26     V30    10.0   1_455     S
V27     V32    10.0   1_554     S
V27     V39    10.0   .     S
V27     V33    10.0   .     S
V27     V31    10.0   .     S
V27     V29    10.0   .     S
V28     V31    10.0   .     S
V28     V40    10.0   .     S
V28     V34    10.0   .     S
V28     V32    10.0   .     S
V28     V30    10.0   .     S
V29     V34    10.0   1_554     S
V29     V41    10.0   .     S
V29     V35    10.0   .     S
V29     V33    10.0   .     S
V29     V25    10.0   1_655     S
V30     V33    10.0   .     S
V30     V42    10.0   .     S
V30     V36    10.0   .     S
V30     V34    10.0   .     S
V30     V26    10.0   1_655     S
V31     V43    10.0   .     S
V31     V35    10.0   1_455     S
V31     V33    10.0   .     S
V32     V27    10.0   1_556     S
V32     V44    10.0   .     S
V32     V36    10.0   1_455     S
V32     V34    10.0   .     S
V33     V45    10.0   .     S
V33     V35    10.0   .     S
V34     V29    10.0   1_556     S
V34     V46    10.0   .     S
V34     V36    10.0   .     S
V35     V26    10.0   1_655     S
V35     V47    10.0   .     S
V35     V25    10.0   1_655     S
V35     V31    10.0   1_655     S
V36     V25    10.0   1_656     S
V36     V48    10.0   .     S
V36     V26    10.0   1_655     S
V36     V32    10.0   1_655     S
V37     V1    10.0   1_545     S
V37     V44    10.0   1_554     S
V37     V39    10.0   .     S
V37     V41    10.0   1_455     S
V37     V43    10.0   .     S
V37     V48    10.0   1_454     S
V38     V2    10.0   1_545     S
V38     V43    10.0   .     S
V38     V40    10.0   .     S
V38     V42    10.0   1_455     S
V38     V44    10.0   .     S
V38     V47    10.0   1_455     S
V39     V3    10.0   1_545     S
V39     V46    10.0   1_554     S
V39     V41    10.0   .     S
V39     V45    10.0   .     S
V39     V44    10.0   1_554     S
V40     V4    10.0   1_545     S
V40     V45    10.0   .     S
V40     V42    10.0   .     S
V40     V46    10.0   .     S
V40     V43    10.0   .     S
V41     V5    10.0   1_545     S
V41     V48    10.0   1_554     S
V41     V37    10.0   1_655     S
V41     V47    10.0   .     S
V41     V46    10.0   1_554     S
V42     V6    10.0   1_545     S
V42     V47    10.0   .     S
V42     V38    10.0   1_655     S
V42     V48    10.0   .     S
V42     V45    10.0   .     S
V43     V7    10.0   1_545     S
V43     V47    10.0   1_455     S
V43     V45    10.0   .     S
V44     V8    10.0   1_545     S
V44     V37    10.0   1_556     S
V44     V48    10.0   1_455     S
V44     V46    10.0   .     S
V44     V39    10.0   1_556     S
V45     V9    10.0   1_545     S
V45     V47    10.0   .     S
V46     V10    10.0   1_545     S
V46     V39    10.0   1_556     S
V46     V48    10.0   .     S
V46     V41    10.0   1_556     S
V47     V11    10.0   1_545     S
V47     V43    10.0   1_655     S
V47     V38    10.0   1_655     S
V48     V12    10.0   1_545     S
V48     V41    10.0   1_556     S
V48     V44    10.0   1_655     S
V48     V37    10.0   1_656     S
