data_vmq
_audit_creation_date              2019-12-31
_audit_creation_method            'Pymatgen'
_symmetry_space_group_name_H-M    'P1'
_symmetry_Int_Tables_number       1
loop_
_symmetry_equiv_pos_as_xyz
  x,y,z
_cell_length_a                    37.3031
_cell_length_b                    30.0
_cell_length_c                    39.4466
_cell_angle_alpha                 90.0
_cell_angle_beta                 104.664
_cell_angle_gamma                 90.0
loop_
_atom_site_label
_atom_site_type_symbol
_atom_site_fract_x
_atom_site_fract_y
_atom_site_fract_z
V1     V     0.8806   0.1943   0.0321
V2     V     0.8806   0.1943   0.5321
V3     V     0.8806   0.5276   0.0321
V4     V     0.8806   0.5276   0.5321
V5     V     0.8806   0.861   0.0321
V6     V     0.8806   0.861   0.5321
V7     V     0.1194   0.139   0.4679
V8     V     0.1194   0.139   0.9679
V9     V     0.1194   0.4724   0.4679
V10     V     0.1194   0.4724   0.9679
V11     V     0.1194   0.8057   0.4679
V12     V     0.1194   0.8057   0.9679
V13     V     0.8806   0.139   0.2821
V14     V     0.8806   0.139   0.7821
V15     V     0.8806   0.4724   0.2821
V16     V     0.8806   0.4724   0.7821
V17     V     0.8806   0.8057   0.2821
V18     V     0.8806   0.8057   0.7821
V19     V     0.1194   0.1943   0.2179
V20     V     0.1194   0.1943   0.7179
V21     V     0.1194   0.5276   0.2179
V22     V     0.1194   0.5276   0.7179
V23     V     0.1194   0.861   0.2179
V24     V     0.1194   0.861   0.7179
V25     V     0.3806   0.3057   0.2821
V26     V     0.3806   0.3057   0.7821
V27     V     0.3806   0.639   0.2821
V28     V     0.3806   0.639   0.7821
V29     V     0.3806   0.9724   0.2821
V30     V     0.3806   0.9724   0.7821
V31     V     0.6194   0.0276   0.2179
V32     V     0.6194   0.0276   0.7179
V33     V     0.6194   0.361   0.2179
V34     V     0.6194   0.361   0.7179
V35     V     0.6194   0.6943   0.2179
V36     V     0.6194   0.6943   0.7179
V37     V     0.3806   0.0276   0.0321
V38     V     0.3806   0.0276   0.5321
V39     V     0.3806   0.361   0.0321
V40     V     0.3806   0.361   0.5321
V41     V     0.3806   0.6943   0.0321
V42     V     0.3806   0.6943   0.5321
V43     V     0.6194   0.3057   0.4679
V44     V     0.6194   0.3057   0.9679
V45     V     0.6194   0.639   0.4679
V46     V     0.6194   0.639   0.9679
V47     V     0.6194   0.9724   0.4679
V48     V     0.6194   0.9724   0.9679
loop_
_geom_bond_atom_site_label_1
_geom_bond_atom_site_label_2
_geom_bond_distance
_geom_bond_site_symmetry_2
_ccdc_geom_bond_type
V1     V14    10.0   1_554     S
V1     V8    10.0   1_654     S
V1     V19    10.0   1_655     S
V1     V13    10.0   .     S
V1     V5    10.0   1_545     S
V1     V3    10.0   .     S
V1     V44    10.0   1_554     S
V2     V13    10.0   .     S
V2     V7    10.0   1_655     S
V2     V20    10.0   1_655     S
V2     V14    10.0   .     S
V2     V6    10.0   1_545     S
V2     V4    10.0   .     S
V2     V43    10.0   .     S
V3     V16    10.0   1_554     S
V3     V10    10.0   1_654     S
V3     V21    10.0   1_655     S
V3     V15    10.0   .     S
V3     V5    10.0   .     S
V3     V46    10.0   1_554     S
V4     V15    10.0   .     S
V4     V9    10.0   1_655     S
V4     V22    10.0   1_655     S
V4     V16    10.0   .     S
V4     V6    10.0   .     S
V4     V45    10.0   .     S
V5     V18    10.0   1_554     S
V5     V12    10.0   1_654     S
V5     V23    10.0   1_655     S
V5     V17    10.0   .     S
V5     V1    10.0   1_565     S
V5     V48    10.0   1_554     S
V6     V17    10.0   .     S
V6     V11    10.0   1_655     S
V6     V24    10.0   1_655     S
V6     V18    10.0   .     S
V6     V2    10.0   1_565     S
V6     V47    10.0   .     S
V7     V13    10.0   1_455     S
V7     V19    10.0   .     S
V7     V2    10.0   1_455     S
V7     V20    10.0   .     S
V7     V9    10.0   .     S
V7     V11    10.0   1_545     S
V7     V38    10.0   .     S
V8     V14    10.0   1_455     S
V8     V20    10.0   .     S
V8     V1    10.0   1_456     S
V8     V19    10.0   1_556     S
V8     V10    10.0   .     S
V8     V12    10.0   1_545     S
V8     V37    10.0   1_556     S
V9     V15    10.0   1_455     S
V9     V21    10.0   .     S
V9     V4    10.0   1_455     S
V9     V22    10.0   .     S
V9     V11    10.0   .     S
V9     V40    10.0   .     S
V10     V16    10.0   1_455     S
V10     V22    10.0   .     S
V10     V3    10.0   1_456     S
V10     V21    10.0   1_556     S
V10     V12    10.0   .     S
V10     V39    10.0   1_556     S
V11     V17    10.0   1_455     S
V11     V23    10.0   .     S
V11     V6    10.0   1_455     S
V11     V24    10.0   .     S
V11     V7    10.0   1_565     S
V11     V42    10.0   .     S
V12     V18    10.0   1_455     S
V12     V24    10.0   .     S
V12     V5    10.0   1_456     S
V12     V23    10.0   1_556     S
V12     V8    10.0   1_565     S
V12     V41    10.0   1_556     S
V13     V7    10.0   1_655     S
V13     V19    10.0   1_655     S
V13     V15    10.0   .     S
V13     V17    10.0   1_545     S
V13     V31    10.0   .     S
V14     V8    10.0   1_655     S
V14     V1    10.0   1_556     S
V14     V20    10.0   1_655     S
V14     V16    10.0   .     S
V14     V18    10.0   1_545     S
V14     V32    10.0   .     S
V15     V9    10.0   1_655     S
V15     V21    10.0   1_655     S
V15     V17    10.0   .     S
V15     V33    10.0   .     S
V16     V10    10.0   1_655     S
V16     V3    10.0   1_556     S
V16     V22    10.0   1_655     S
V16     V18    10.0   .     S
V16     V34    10.0   .     S
V17     V11    10.0   1_655     S
V17     V23    10.0   1_655     S
V17     V13    10.0   1_565     S
V17     V35    10.0   .     S
V18     V12    10.0   1_655     S
V18     V5    10.0   1_556     S
V18     V24    10.0   1_655     S
V18     V14    10.0   1_565     S
V18     V36    10.0   .     S
V19     V13    10.0   1_455     S
V19     V1    10.0   1_455     S
V19     V8    10.0   1_554     S
V19     V23    10.0   1_545     S
V19     V21    10.0   .     S
V19     V25    10.0   .     S
V20     V14    10.0   1_455     S
V20     V2    10.0   1_455     S
V20     V24    10.0   1_545     S
V20     V22    10.0   .     S
V20     V26    10.0   .     S
V21     V15    10.0   1_455     S
V21     V3    10.0   1_455     S
V21     V10    10.0   1_554     S
V21     V23    10.0   .     S
V21     V27    10.0   .     S
V22     V16    10.0   1_455     S
V22     V4    10.0   1_455     S
V22     V24    10.0   .     S
V22     V28    10.0   .     S
V23     V17    10.0   1_455     S
V23     V5    10.0   1_455     S
V23     V12    10.0   1_554     S
V23     V19    10.0   1_565     S
V23     V29    10.0   .     S
V24     V18    10.0   1_455     S
V24     V6    10.0   1_455     S
V24     V20    10.0   1_565     S
V24     V30    10.0   .     S
V25     V43    10.0   .     S
V25     V40    10.0   .     S
V25     V33    10.0   .     S
V25     V39    10.0   .     S
V25     V29    10.0   1_545     S
V25     V27    10.0   .     S
V26     V44    10.0   .     S
V26     V39    10.0   1_556     S
V26     V34    10.0   .     S
V26     V40    10.0   .     S
V26     V30    10.0   1_545     S
V26     V28    10.0   .     S
V27     V45    10.0   .     S
V27     V42    10.0   .     S
V27     V35    10.0   .     S
V27     V41    10.0   .     S
V27     V29    10.0   .     S
V28     V46    10.0   .     S
V28     V41    10.0   1_556     S
V28     V36    10.0   .     S
V28     V42    10.0   .     S
V28     V30    10.0   .     S
V29     V47    10.0   .     S
V29     V38    10.0   1_565     S
V29     V31    10.0   1_565     S
V29     V37    10.0   1_565     S
V29     V25    10.0   1_565     S
V30     V48    10.0   .     S
V30     V37    10.0   1_566     S
V30     V32    10.0   1_565     S
V30     V38    10.0   1_565     S
V30     V26    10.0   1_565     S
V31     V47    10.0   1_545     S
V31     V29    10.0   1_545     S
V31     V37    10.0   .     S
V31     V48    10.0   1_544     S
V31     V33    10.0   .     S
V31     V35    10.0   1_545     S
V32     V48    10.0   1_545     S
V32     V30    10.0   1_545     S
V32     V38    10.0   .     S
V32     V47    10.0   1_545     S
V32     V34    10.0   .     S
V32     V36    10.0   1_545     S
V33     V43    10.0   .     S
V33     V39    10.0   .     S
V33     V44    10.0   1_554     S
V33     V35    10.0   .     S
V34     V44    10.0   .     S
V34     V40    10.0   .     S
V34     V43    10.0   .     S
V34     V36    10.0   .     S
V35     V45    10.0   .     S
V35     V41    10.0   .     S
V35     V46    10.0   1_554     S
V35     V31    10.0   1_565     S
V36     V46    10.0   .     S
V36     V42    10.0   .     S
V36     V45    10.0   .     S
V36     V32    10.0   1_565     S
V37     V30    10.0   1_544     S
V37     V48    10.0   1_544     S
V37     V29    10.0   1_545     S
V37     V39    10.0   .     S
V37     V41    10.0   1_545     S
V37     V8    10.0   1_554     S
V38     V29    10.0   1_545     S
V38     V47    10.0   1_545     S
V38     V30    10.0   1_545     S
V38     V40    10.0   .     S
V38     V42    10.0   1_545     S
V39     V26    10.0   1_554     S
V39     V44    10.0   1_554     S
V39     V41    10.0   .     S
V39     V10    10.0   1_554     S
V40     V43    10.0   .     S
V40     V42    10.0   .     S
V41     V28    10.0   1_554     S
V41     V46    10.0   1_554     S
V41     V37    10.0   1_565     S
V41     V12    10.0   1_554     S
V42     V45    10.0   .     S
V42     V38    10.0   1_565     S
V43     V47    10.0   1_545     S
V43     V45    10.0   .     S
V44     V39    10.0   1_556     S
V44     V33    10.0   1_556     S
V44     V48    10.0   1_545     S
V44     V46    10.0   .     S
V44     V1    10.0   1_556     S
V45     V47    10.0   .     S
V46     V41    10.0   1_556     S
V46     V35    10.0   1_556     S
V46     V48    10.0   .     S
V46     V3    10.0   1_556     S
V47     V31    10.0   1_565     S
V47     V38    10.0   1_565     S
V47     V32    10.0   1_565     S
V47     V43    10.0   1_565     S
V48     V32    10.0   1_565     S
V48     V37    10.0   1_566     S
V48     V31    10.0   1_566     S
V48     V44    10.0   1_565     S
V48     V5    10.0   1_556     S
