data_vmr
_audit_creation_date              2019-12-31
_audit_creation_method            'Pymatgen'
_symmetry_space_group_name_H-M    'P1'
_symmetry_Int_Tables_number       1
loop_
_symmetry_equiv_pos_as_xyz
  x,y,z
_cell_length_a                    27.8314
_cell_length_b                    27.8422
_cell_length_c                    38.8148
_cell_angle_alpha                 90.0
_cell_angle_beta                 104.1556
_cell_angle_gamma                 90.0
loop_
_atom_site_label
_atom_site_type_symbol
_atom_site_fract_x
_atom_site_fract_y
_atom_site_fract_z
V1     V     0.117   0.0816   0.3515
V2     V     0.117   0.0816   0.8515
V3     V     0.117   0.5816   0.3515
V4     V     0.117   0.5816   0.8515
V5     V     0.617   0.0816   0.3515
V6     V     0.617   0.0816   0.8515
V7     V     0.617   0.5816   0.3515
V8     V     0.617   0.5816   0.8515
V9     V     0.383   0.3316   0.3985
V10     V     0.383   0.3316   0.8985
V11     V     0.383   0.8316   0.3985
V12     V     0.383   0.8316   0.8985
V13     V     0.883   0.3316   0.3985
V14     V     0.883   0.3316   0.8985
V15     V     0.883   0.8316   0.3985
V16     V     0.883   0.8316   0.8985
V17     V     0.383   0.4184   0.1485
V18     V     0.383   0.4184   0.6485
V19     V     0.383   0.9184   0.1485
V20     V     0.383   0.9184   0.6485
V21     V     0.883   0.4184   0.1485
V22     V     0.883   0.4184   0.6485
V23     V     0.883   0.9184   0.1485
V24     V     0.883   0.9184   0.6485
V25     V     0.117   0.1684   0.1015
V26     V     0.117   0.1684   0.6015
V27     V     0.117   0.6684   0.1015
V28     V     0.117   0.6684   0.6015
V29     V     0.617   0.1684   0.1015
V30     V     0.617   0.1684   0.6015
V31     V     0.617   0.6684   0.1015
V32     V     0.617   0.6684   0.6015
loop_
_geom_bond_atom_site_label_1
_geom_bond_atom_site_label_2
_geom_bond_distance
_geom_bond_site_symmetry_2
_ccdc_geom_bond_type
V1     V23    10.0   1_445     S
V1     V25    10.0   .     S
V1     V11    10.0   1_545     S
V1     V9    10.0   .     S
V1     V15    10.0   1_445     S
V1     V13    10.0   1_455     S
V1     V26    10.0   .     S
V2     V24    10.0   1_445     S
V2     V26    10.0   .     S
V2     V12    10.0   1_545     S
V2     V10    10.0   .     S
V2     V16    10.0   1_445     S
V2     V14    10.0   1_455     S
V2     V25    10.0   1_556     S
V3     V21    10.0   1_455     S
V3     V27    10.0   .     S
V3     V9    10.0   .     S
V3     V11    10.0   .     S
V3     V13    10.0   1_455     S
V3     V15    10.0   1_455     S
V3     V28    10.0   .     S
V4     V22    10.0   1_455     S
V4     V28    10.0   .     S
V4     V10    10.0   .     S
V4     V12    10.0   .     S
V4     V14    10.0   1_455     S
V4     V16    10.0   1_455     S
V4     V27    10.0   1_556     S
V5     V19    10.0   1_545     S
V5     V29    10.0   .     S
V5     V15    10.0   1_545     S
V5     V13    10.0   .     S
V5     V11    10.0   1_545     S
V5     V9    10.0   .     S
V5     V30    10.0   .     S
V6     V20    10.0   1_545     S
V6     V30    10.0   .     S
V6     V16    10.0   1_545     S
V6     V14    10.0   .     S
V6     V12    10.0   1_545     S
V6     V10    10.0   .     S
V6     V29    10.0   1_556     S
V7     V17    10.0   .     S
V7     V31    10.0   .     S
V7     V13    10.0   .     S
V7     V15    10.0   .     S
V7     V9    10.0   .     S
V7     V11    10.0   .     S
V7     V32    10.0   .     S
V8     V18    10.0   .     S
V8     V32    10.0   .     S
V8     V14    10.0   .     S
V8     V16    10.0   .     S
V8     V10    10.0   .     S
V8     V12    10.0   .     S
V8     V31    10.0   1_556     S
V9     V17    10.0   .     S
V9     V30    10.0   .     S
V9     V18    10.0   .     S
V10     V18    10.0   .     S
V10     V29    10.0   1_556     S
V10     V17    10.0   1_556     S
V11     V19    10.0   .     S
V11     V1    10.0   1_565     S
V11     V5    10.0   1_565     S
V11     V32    10.0   .     S
V11     V20    10.0   .     S
V12     V20    10.0   .     S
V12     V2    10.0   1_565     S
V12     V6    10.0   1_565     S
V12     V31    10.0   1_556     S
V12     V19    10.0   1_556     S
V13     V21    10.0   .     S
V13     V3    10.0   1_655     S
V13     V1    10.0   1_655     S
V13     V26    10.0   1_655     S
V13     V22    10.0   .     S
V14     V22    10.0   .     S
V14     V4    10.0   1_655     S
V14     V2    10.0   1_655     S
V14     V25    10.0   1_656     S
V14     V21    10.0   1_556     S
V15     V23    10.0   .     S
V15     V5    10.0   1_565     S
V15     V1    10.0   1_665     S
V15     V3    10.0   1_655     S
V15     V28    10.0   1_655     S
V15     V24    10.0   .     S
V16     V24    10.0   .     S
V16     V6    10.0   1_565     S
V16     V2    10.0   1_665     S
V16     V4    10.0   1_655     S
V16     V27    10.0   1_656     S
V16     V23    10.0   1_556     S
V17     V25    10.0   .     S
V17     V27    10.0   .     S
V17     V31    10.0   .     S
V17     V29    10.0   .     S
V17     V10    10.0   1_554     S
V18     V26    10.0   .     S
V18     V28    10.0   .     S
V18     V32    10.0   .     S
V18     V30    10.0   .     S
V19     V5    10.0   1_565     S
V19     V27    10.0   .     S
V19     V25    10.0   1_565     S
V19     V29    10.0   1_565     S
V19     V31    10.0   .     S
V19     V12    10.0   1_554     S
V20     V6    10.0   1_565     S
V20     V28    10.0   .     S
V20     V26    10.0   1_565     S
V20     V30    10.0   1_565     S
V20     V32    10.0   .     S
V21     V3    10.0   1_655     S
V21     V29    10.0   .     S
V21     V31    10.0   .     S
V21     V27    10.0   1_655     S
V21     V25    10.0   1_655     S
V21     V14    10.0   1_554     S
V22     V4    10.0   1_655     S
V22     V30    10.0   .     S
V22     V32    10.0   .     S
V22     V28    10.0   1_655     S
V22     V26    10.0   1_655     S
V23     V1    10.0   1_665     S
V23     V31    10.0   .     S
V23     V29    10.0   1_565     S
V23     V25    10.0   1_665     S
V23     V27    10.0   1_655     S
V23     V16    10.0   1_554     S
V24     V2    10.0   1_665     S
V24     V32    10.0   .     S
V24     V30    10.0   1_565     S
V24     V26    10.0   1_665     S
V24     V28    10.0   1_655     S
V25     V19    10.0   1_545     S
V25     V23    10.0   1_445     S
V25     V21    10.0   1_455     S
V25     V14    10.0   1_454     S
V25     V2    10.0   1_554     S
V26     V20    10.0   1_545     S
V26     V24    10.0   1_445     S
V26     V22    10.0   1_455     S
V26     V13    10.0   1_455     S
V27     V21    10.0   1_455     S
V27     V23    10.0   1_455     S
V27     V16    10.0   1_454     S
V27     V4    10.0   1_554     S
V28     V22    10.0   1_455     S
V28     V24    10.0   1_455     S
V28     V15    10.0   1_455     S
V29     V23    10.0   1_545     S
V29     V19    10.0   1_545     S
V29     V10    10.0   1_554     S
V29     V6    10.0   1_554     S
V30     V24    10.0   1_545     S
V30     V20    10.0   1_545     S
V31     V12    10.0   1_554     S
V31     V8    10.0   1_554     S
