data_vms
_audit_creation_date              2019-12-31
_audit_creation_method            'Pymatgen'
_symmetry_space_group_name_H-M    'P1'
_symmetry_Int_Tables_number       1
loop_
_symmetry_equiv_pos_as_xyz
  x,y,z
_cell_length_a                    38.9242
_cell_length_b                    38.2506
_cell_length_c                    37.124
_cell_angle_alpha                 90.0
_cell_angle_beta                 100.67
_cell_angle_gamma                 90.0
loop_
_atom_site_label
_atom_site_type_symbol
_atom_site_fract_x
_atom_site_fract_y
_atom_site_fract_z
V1     V     0.2118   0.2199   0.3676
V2     V     0.2118   0.2199   0.8676
V3     V     0.2118   0.7199   0.3676
V4     V     0.2118   0.7199   0.8676
V5     V     0.7118   0.2199   0.3676
V6     V     0.7118   0.2199   0.8676
V7     V     0.7118   0.7199   0.3676
V8     V     0.7118   0.7199   0.8676
V9     V     0.2882   0.2801   0.1324
V10     V     0.2882   0.2801   0.6324
V11     V     0.2882   0.7801   0.1324
V12     V     0.2882   0.7801   0.6324
V13     V     0.7882   0.2801   0.1324
V14     V     0.7882   0.2801   0.6324
V15     V     0.7882   0.7801   0.1324
V16     V     0.7882   0.7801   0.6324
V17     V     0.4618   0.2801   0.3676
V18     V     0.4618   0.2801   0.8676
V19     V     0.4618   0.7801   0.3676
V20     V     0.4618   0.7801   0.8676
V21     V     0.9618   0.2801   0.3676
V22     V     0.9618   0.2801   0.8676
V23     V     0.9618   0.7801   0.3676
V24     V     0.9618   0.7801   0.8676
V25     V     0.0382   0.2199   0.1324
V26     V     0.0382   0.2199   0.6324
V27     V     0.0382   0.7199   0.1324
V28     V     0.0382   0.7199   0.6324
V29     V     0.5382   0.2199   0.1324
V30     V     0.5382   0.2199   0.6324
V31     V     0.5382   0.7199   0.1324
V32     V     0.5382   0.7199   0.6324
V33     V     0.2882   0.4699   0.3824
V34     V     0.2882   0.4699   0.8824
V35     V     0.2882   0.9699   0.3824
V36     V     0.2882   0.9699   0.8824
V37     V     0.7882   0.4699   0.3824
V38     V     0.7882   0.4699   0.8824
V39     V     0.7882   0.9699   0.3824
V40     V     0.7882   0.9699   0.8824
V41     V     0.2118   0.0301   0.1176
V42     V     0.2118   0.0301   0.6176
V43     V     0.2118   0.5301   0.1176
V44     V     0.2118   0.5301   0.6176
V45     V     0.7118   0.0301   0.1176
V46     V     0.7118   0.0301   0.6176
V47     V     0.7118   0.5301   0.1176
V48     V     0.7118   0.5301   0.6176
V49     V     0.0382   0.0301   0.3824
V50     V     0.0382   0.0301   0.8824
V51     V     0.0382   0.5301   0.3824
V52     V     0.0382   0.5301   0.8824
V53     V     0.5382   0.0301   0.3824
V54     V     0.5382   0.0301   0.8824
V55     V     0.5382   0.5301   0.3824
V56     V     0.5382   0.5301   0.8824
V57     V     0.4618   0.4699   0.1176
V58     V     0.4618   0.4699   0.6176
V59     V     0.4618   0.9699   0.1176
V60     V     0.4618   0.9699   0.6176
V61     V     0.9618   0.4699   0.1176
V62     V     0.9618   0.4699   0.6176
V63     V     0.9618   0.9699   0.1176
V64     V     0.9618   0.9699   0.6176
loop_
_geom_bond_atom_site_label_1
_geom_bond_atom_site_label_2
_geom_bond_distance
_geom_bond_site_symmetry_2
_ccdc_geom_bond_type
V1     V25    10.0   .     S
V1     V9    10.0   .     S
V1     V33    10.0   .     S
V1     V10    10.0   .     S
V1     V17    10.0   .     S
V1     V21    10.0   1_455     S
V1     V49    10.0   .     S
V1     V35    10.0   1_545     S
V2     V26    10.0   .     S
V2     V10    10.0   .     S
V2     V34    10.0   .     S
V2     V9    10.0   1_556     S
V2     V18    10.0   .     S
V2     V22    10.0   1_455     S
V2     V50    10.0   .     S
V2     V36    10.0   1_545     S
V3     V27    10.0   .     S
V3     V11    10.0   .     S
V3     V35    10.0   .     S
V3     V12    10.0   .     S
V3     V19    10.0   .     S
V3     V23    10.0   1_455     S
V3     V51    10.0   .     S
V3     V33    10.0   .     S
V4     V28    10.0   .     S
V4     V12    10.0   .     S
V4     V36    10.0   .     S
V4     V11    10.0   1_556     S
V4     V20    10.0   .     S
V4     V24    10.0   1_455     S
V4     V52    10.0   .     S
V4     V34    10.0   .     S
V5     V29    10.0   .     S
V5     V13    10.0   .     S
V5     V37    10.0   .     S
V5     V14    10.0   .     S
V5     V21    10.0   .     S
V5     V17    10.0   .     S
V5     V53    10.0   .     S
V5     V39    10.0   1_545     S
V6     V30    10.0   .     S
V6     V14    10.0   .     S
V6     V38    10.0   .     S
V6     V13    10.0   1_556     S
V6     V22    10.0   .     S
V6     V18    10.0   .     S
V6     V54    10.0   .     S
V6     V40    10.0   1_545     S
V7     V31    10.0   .     S
V7     V15    10.0   .     S
V7     V39    10.0   .     S
V7     V16    10.0   .     S
V7     V23    10.0   .     S
V7     V19    10.0   .     S
V7     V55    10.0   .     S
V7     V37    10.0   .     S
V8     V32    10.0   .     S
V8     V16    10.0   .     S
V8     V40    10.0   .     S
V8     V15    10.0   1_556     S
V8     V24    10.0   .     S
V8     V20    10.0   .     S
V8     V56    10.0   .     S
V8     V38    10.0   .     S
V9     V17    10.0   .     S
V9     V43    10.0   .     S
V9     V57    10.0   .     S
V9     V2    10.0   1_554     S
V9     V29    10.0   .     S
V9     V25    10.0   .     S
V9     V41    10.0   .     S
V10     V18    10.0   .     S
V10     V44    10.0   .     S
V10     V58    10.0   .     S
V10     V30    10.0   .     S
V10     V26    10.0   .     S
V10     V42    10.0   .     S
V11     V19    10.0   .     S
V11     V41    10.0   1_565     S
V11     V59    10.0   .     S
V11     V4    10.0   1_554     S
V11     V31    10.0   .     S
V11     V27    10.0   .     S
V11     V43    10.0   .     S
V12     V20    10.0   .     S
V12     V42    10.0   1_565     S
V12     V60    10.0   .     S
V12     V32    10.0   .     S
V12     V28    10.0   .     S
V12     V44    10.0   .     S
V13     V21    10.0   .     S
V13     V47    10.0   .     S
V13     V61    10.0   .     S
V13     V6    10.0   1_554     S
V13     V25    10.0   1_655     S
V13     V29    10.0   .     S
V13     V45    10.0   .     S
V14     V22    10.0   .     S
V14     V48    10.0   .     S
V14     V62    10.0   .     S
V14     V26    10.0   1_655     S
V14     V30    10.0   .     S
V14     V46    10.0   .     S
V15     V23    10.0   .     S
V15     V45    10.0   1_565     S
V15     V63    10.0   .     S
V15     V8    10.0   1_554     S
V15     V27    10.0   1_655     S
V15     V31    10.0   .     S
V15     V47    10.0   .     S
V16     V24    10.0   .     S
V16     V46    10.0   1_565     S
V16     V64    10.0   .     S
V16     V28    10.0   1_655     S
V16     V32    10.0   .     S
V16     V48    10.0   .     S
V17     V29    10.0   .     S
V17     V55    10.0   .     S
V17     V33    10.0   .     S
V17     V30    10.0   .     S
V17     V53    10.0   .     S
V18     V30    10.0   .     S
V18     V56    10.0   .     S
V18     V34    10.0   .     S
V18     V29    10.0   1_556     S
V18     V54    10.0   .     S
V19     V31    10.0   .     S
V19     V53    10.0   1_565     S
V19     V35    10.0   .     S
V19     V32    10.0   .     S
V19     V55    10.0   .     S
V20     V32    10.0   .     S
V20     V54    10.0   1_565     S
V20     V36    10.0   .     S
V20     V31    10.0   1_556     S
V20     V56    10.0   .     S
V21     V25    10.0   1_655     S
V21     V51    10.0   1_655     S
V21     V37    10.0   .     S
V21     V26    10.0   1_655     S
V21     V1    10.0   1_655     S
V21     V49    10.0   1_655     S
V22     V26    10.0   1_655     S
V22     V52    10.0   1_655     S
V22     V38    10.0   .     S
V22     V25    10.0   1_656     S
V22     V2    10.0   1_655     S
V22     V50    10.0   1_655     S
V23     V27    10.0   1_655     S
V23     V49    10.0   1_665     S
V23     V39    10.0   .     S
V23     V28    10.0   1_655     S
V23     V3    10.0   1_655     S
V23     V51    10.0   1_655     S
V24     V28    10.0   1_655     S
V24     V50    10.0   1_665     S
V24     V40    10.0   .     S
V24     V27    10.0   1_656     S
V24     V4    10.0   1_655     S
V24     V52    10.0   1_655     S
V25     V21    10.0   1_455     S
V25     V61    10.0   1_455     S
V25     V22    10.0   1_454     S
V25     V13    10.0   1_455     S
V25     V41    10.0   .     S
V25     V63    10.0   1_445     S
V26     V22    10.0   1_455     S
V26     V62    10.0   1_455     S
V26     V21    10.0   1_455     S
V26     V14    10.0   1_455     S
V26     V42    10.0   .     S
V26     V64    10.0   1_445     S
V27     V23    10.0   1_455     S
V27     V63    10.0   1_455     S
V27     V24    10.0   1_454     S
V27     V15    10.0   1_455     S
V27     V43    10.0   .     S
V27     V61    10.0   1_455     S
V28     V24    10.0   1_455     S
V28     V64    10.0   1_455     S
V28     V23    10.0   1_455     S
V28     V16    10.0   1_455     S
V28     V44    10.0   .     S
V28     V62    10.0   1_455     S
V29     V57    10.0   .     S
V29     V18    10.0   1_554     S
V29     V45    10.0   .     S
V29     V59    10.0   1_545     S
V30     V58    10.0   .     S
V30     V46    10.0   .     S
V30     V60    10.0   1_545     S
V31     V59    10.0   .     S
V31     V20    10.0   1_554     S
V31     V47    10.0   .     S
V31     V57    10.0   .     S
V32     V60    10.0   .     S
V32     V48    10.0   .     S
V32     V58    10.0   .     S
V33     V58    10.0   .     S
V33     V44    10.0   .     S
V33     V43    10.0   .     S
V33     V55    10.0   .     S
V33     V51    10.0   .     S
V34     V57    10.0   1_556     S
V34     V43    10.0   1_556     S
V34     V44    10.0   .     S
V34     V56    10.0   .     S
V34     V52    10.0   .     S
V35     V60    10.0   .     S
V35     V42    10.0   1_565     S
V35     V1    10.0   1_565     S
V35     V41    10.0   1_565     S
V35     V53    10.0   1_565     S
V35     V49    10.0   1_565     S
V36     V59    10.0   1_556     S
V36     V41    10.0   1_566     S
V36     V2    10.0   1_565     S
V36     V42    10.0   1_565     S
V36     V54    10.0   1_565     S
V36     V50    10.0   1_565     S
V37     V62    10.0   .     S
V37     V48    10.0   .     S
V37     V47    10.0   .     S
V37     V51    10.0   1_655     S
V37     V55    10.0   .     S
V38     V61    10.0   1_556     S
V38     V47    10.0   1_556     S
V38     V48    10.0   .     S
V38     V52    10.0   1_655     S
V38     V56    10.0   .     S
V39     V64    10.0   .     S
V39     V46    10.0   1_565     S
V39     V5    10.0   1_565     S
V39     V45    10.0   1_565     S
V39     V49    10.0   1_665     S
V39     V53    10.0   1_565     S
V40     V63    10.0   1_556     S
V40     V45    10.0   1_566     S
V40     V6    10.0   1_565     S
V40     V46    10.0   1_565     S
V40     V50    10.0   1_665     S
V40     V54    10.0   1_565     S
V41     V36    10.0   1_544     S
V41     V50    10.0   1_554     S
V41     V11    10.0   1_545     S
V41     V35    10.0   1_545     S
V41     V59    10.0   1_545     S
V41     V63    10.0   1_445     S
V42     V35    10.0   1_545     S
V42     V49    10.0   .     S
V42     V12    10.0   1_545     S
V42     V36    10.0   1_545     S
V42     V60    10.0   1_545     S
V42     V64    10.0   1_445     S
V43     V34    10.0   1_554     S
V43     V52    10.0   1_554     S
V43     V57    10.0   .     S
V43     V61    10.0   1_455     S
V44     V51    10.0   .     S
V44     V58    10.0   .     S
V44     V62    10.0   1_455     S
V45     V40    10.0   1_544     S
V45     V54    10.0   1_554     S
V45     V15    10.0   1_545     S
V45     V39    10.0   1_545     S
V45     V63    10.0   1_545     S
V45     V59    10.0   1_545     S
V46     V39    10.0   1_545     S
V46     V53    10.0   .     S
V46     V16    10.0   1_545     S
V46     V40    10.0   1_545     S
V46     V64    10.0   1_545     S
V46     V60    10.0   1_545     S
V47     V38    10.0   1_554     S
V47     V56    10.0   1_554     S
V47     V61    10.0   .     S
V47     V57    10.0   .     S
V48     V55    10.0   .     S
V48     V62    10.0   .     S
V48     V58    10.0   .     S
V49     V64    10.0   1_445     S
V49     V23    10.0   1_445     S
V49     V21    10.0   1_455     S
V49     V63    10.0   1_445     S
V49     V39    10.0   1_445     S
V49     V35    10.0   1_545     S
V50     V41    10.0   1_556     S
V50     V63    10.0   1_446     S
V50     V24    10.0   1_445     S
V50     V22    10.0   1_455     S
V50     V64    10.0   1_445     S
V50     V40    10.0   1_445     S
V50     V36    10.0   1_545     S
V51     V62    10.0   1_455     S
V51     V21    10.0   1_455     S
V51     V23    10.0   1_455     S
V51     V61    10.0   1_455     S
V51     V37    10.0   1_455     S
V52     V43    10.0   1_556     S
V52     V61    10.0   1_456     S
V52     V22    10.0   1_455     S
V52     V24    10.0   1_455     S
V52     V62    10.0   1_455     S
V52     V38    10.0   1_455     S
V53     V60    10.0   1_545     S
V53     V19    10.0   1_545     S
V53     V59    10.0   1_545     S
V53     V35    10.0   1_545     S
V53     V39    10.0   1_545     S
V54     V45    10.0   1_556     S
V54     V59    10.0   1_546     S
V54     V20    10.0   1_545     S
V54     V60    10.0   1_545     S
V54     V36    10.0   1_545     S
V54     V40    10.0   1_545     S
V55     V58    10.0   .     S
V55     V57    10.0   .     S
V56     V47    10.0   1_556     S
V56     V57    10.0   1_556     S
V56     V58    10.0   .     S
V57     V34    10.0   1_554     S
V57     V56    10.0   1_554     S
V59     V36    10.0   1_554     S
V59     V54    10.0   1_564     S
V59     V29    10.0   1_565     S
V59     V53    10.0   1_565     S
V59     V41    10.0   1_565     S
V59     V45    10.0   1_565     S
V60     V53    10.0   1_565     S
V60     V30    10.0   1_565     S
V60     V54    10.0   1_565     S
V60     V42    10.0   1_565     S
V60     V46    10.0   1_565     S
V61     V38    10.0   1_554     S
V61     V52    10.0   1_654     S
V61     V25    10.0   1_655     S
V61     V27    10.0   1_655     S
V61     V51    10.0   1_655     S
V61     V43    10.0   1_655     S
V62     V51    10.0   1_655     S
V62     V26    10.0   1_655     S
V62     V28    10.0   1_655     S
V62     V52    10.0   1_655     S
V62     V44    10.0   1_655     S
V63     V40    10.0   1_554     S
V63     V50    10.0   1_664     S
V63     V27    10.0   1_655     S
V63     V25    10.0   1_665     S
V63     V49    10.0   1_665     S
V63     V45    10.0   1_565     S
V63     V41    10.0   1_665     S
V64     V49    10.0   1_665     S
V64     V28    10.0   1_655     S
V64     V26    10.0   1_665     S
V64     V50    10.0   1_665     S
V64     V46    10.0   1_565     S
V64     V42    10.0   1_665     S
