data_vmt
_audit_creation_date              2019-12-31
_audit_creation_method            'Pymatgen'
_symmetry_space_group_name_H-M    'P1'
_symmetry_Int_Tables_number       1
loop_
_symmetry_equiv_pos_as_xyz
  x,y,z
_cell_length_a                    38.4858
_cell_length_b                    38.4852
_cell_length_c                    38.672
_cell_angle_alpha                 90.0
_cell_angle_beta                 105.3259
_cell_angle_gamma                 90.0
loop_
_atom_site_label
_atom_site_type_symbol
_atom_site_fract_x
_atom_site_fract_y
_atom_site_fract_z
V1     V     0.3847   0.4668   0.4115
V2     V     0.3847   0.4668   0.9115
V3     V     0.3847   0.9668   0.4115
V4     V     0.3847   0.9668   0.9115
V5     V     0.8847   0.4668   0.4115
V6     V     0.8847   0.4668   0.9115
V7     V     0.8847   0.9668   0.4115
V8     V     0.8847   0.9668   0.9115
V9     V     0.3653   0.2832   0.0885
V10     V     0.3653   0.2832   0.5885
V11     V     0.3653   0.7832   0.0885
V12     V     0.3653   0.7832   0.5885
V13     V     0.8653   0.2832   0.0885
V14     V     0.8653   0.2832   0.5885
V15     V     0.8653   0.7832   0.0885
V16     V     0.8653   0.7832   0.5885
V17     V     0.3653   0.2168   0.3385
V18     V     0.3653   0.2168   0.8385
V19     V     0.3653   0.7168   0.3385
V20     V     0.3653   0.7168   0.8385
V21     V     0.8653   0.2168   0.3385
V22     V     0.8653   0.2168   0.8385
V23     V     0.8653   0.7168   0.3385
V24     V     0.8653   0.7168   0.8385
V25     V     0.3847   0.0332   0.1615
V26     V     0.3847   0.0332   0.6615
V27     V     0.3847   0.5332   0.1615
V28     V     0.3847   0.5332   0.6615
V29     V     0.8847   0.0332   0.1615
V30     V     0.8847   0.0332   0.6615
V31     V     0.8847   0.5332   0.1615
V32     V     0.8847   0.5332   0.6615
V33     V     0.1153   0.4668   0.3385
V34     V     0.1153   0.4668   0.8385
V35     V     0.1153   0.9668   0.3385
V36     V     0.1153   0.9668   0.8385
V37     V     0.6153   0.4668   0.3385
V38     V     0.6153   0.4668   0.8385
V39     V     0.6153   0.9668   0.3385
V40     V     0.6153   0.9668   0.8385
V41     V     0.1347   0.2832   0.1615
V42     V     0.1347   0.2832   0.6615
V43     V     0.1347   0.7832   0.1615
V44     V     0.1347   0.7832   0.6615
V45     V     0.6347   0.2832   0.1615
V46     V     0.6347   0.2832   0.6615
V47     V     0.6347   0.7832   0.1615
V48     V     0.6347   0.7832   0.6615
V49     V     0.1347   0.2168   0.4115
V50     V     0.1347   0.2168   0.9115
V51     V     0.1347   0.7168   0.4115
V52     V     0.1347   0.7168   0.9115
V53     V     0.6347   0.2168   0.4115
V54     V     0.6347   0.2168   0.9115
V55     V     0.6347   0.7168   0.4115
V56     V     0.6347   0.7168   0.9115
V57     V     0.1153   0.0332   0.0885
V58     V     0.1153   0.0332   0.5885
V59     V     0.1153   0.5332   0.0885
V60     V     0.1153   0.5332   0.5885
V61     V     0.6153   0.0332   0.0885
V62     V     0.6153   0.0332   0.5885
V63     V     0.6153   0.5332   0.0885
V64     V     0.6153   0.5332   0.5885
loop_
_geom_bond_atom_site_label_1
_geom_bond_atom_site_label_2
_geom_bond_distance
_geom_bond_site_symmetry_2
_ccdc_geom_bond_type
V1     V17    10.0   .     S
V1     V27    10.0   .     S
V1     V19    10.0   .     S
V1     V10    10.0   .     S
V1     V28    10.0   .     S
V1     V64    10.0   .     S
V1     V37    10.0   .     S
V1     V33    10.0   .     S
V2     V18    10.0   .     S
V2     V28    10.0   .     S
V2     V20    10.0   .     S
V2     V9    10.0   1_556     S
V2     V27    10.0   1_556     S
V2     V63    10.0   1_556     S
V2     V38    10.0   .     S
V2     V34    10.0   .     S
V3     V19    10.0   .     S
V3     V25    10.0   1_565     S
V3     V17    10.0   1_565     S
V3     V12    10.0   .     S
V3     V26    10.0   1_565     S
V3     V62    10.0   1_565     S
V3     V39    10.0   .     S
V3     V35    10.0   .     S
V4     V20    10.0   .     S
V4     V26    10.0   1_565     S
V4     V18    10.0   1_565     S
V4     V11    10.0   1_556     S
V4     V25    10.0   1_566     S
V4     V61    10.0   1_566     S
V4     V40    10.0   .     S
V4     V36    10.0   .     S
V5     V21    10.0   .     S
V5     V31    10.0   .     S
V5     V23    10.0   .     S
V5     V14    10.0   .     S
V5     V32    10.0   .     S
V5     V60    10.0   1_655     S
V5     V33    10.0   1_655     S
V5     V37    10.0   .     S
V6     V22    10.0   .     S
V6     V32    10.0   .     S
V6     V24    10.0   .     S
V6     V13    10.0   1_556     S
V6     V31    10.0   1_556     S
V6     V59    10.0   1_656     S
V6     V34    10.0   1_655     S
V6     V38    10.0   .     S
V7     V23    10.0   .     S
V7     V29    10.0   1_565     S
V7     V21    10.0   1_565     S
V7     V16    10.0   .     S
V7     V30    10.0   1_565     S
V7     V58    10.0   1_665     S
V7     V35    10.0   1_655     S
V7     V39    10.0   .     S
V8     V24    10.0   .     S
V8     V30    10.0   1_565     S
V8     V22    10.0   1_565     S
V8     V15    10.0   1_556     S
V8     V29    10.0   1_566     S
V8     V57    10.0   1_666     S
V8     V36    10.0   1_655     S
V8     V40    10.0   .     S
V9     V18    10.0   1_554     S
V9     V17    10.0   .     S
V9     V25    10.0   .     S
V9     V2    10.0   1_554     S
V9     V27    10.0   .     S
V9     V41    10.0   .     S
V9     V50    10.0   1_554     S
V9     V45    10.0   .     S
V10     V17    10.0   .     S
V10     V18    10.0   .     S
V10     V26    10.0   .     S
V10     V28    10.0   .     S
V10     V42    10.0   .     S
V10     V49    10.0   .     S
V10     V46    10.0   .     S
V11     V20    10.0   1_554     S
V11     V19    10.0   .     S
V11     V27    10.0   .     S
V11     V4    10.0   1_554     S
V11     V25    10.0   1_565     S
V11     V43    10.0   .     S
V11     V52    10.0   1_554     S
V11     V47    10.0   .     S
V12     V19    10.0   .     S
V12     V20    10.0   .     S
V12     V28    10.0   .     S
V12     V26    10.0   1_565     S
V12     V44    10.0   .     S
V12     V51    10.0   .     S
V12     V48    10.0   .     S
V13     V22    10.0   1_554     S
V13     V21    10.0   .     S
V13     V29    10.0   .     S
V13     V6    10.0   1_554     S
V13     V31    10.0   .     S
V13     V45    10.0   .     S
V13     V54    10.0   1_554     S
V13     V41    10.0   1_655     S
V14     V21    10.0   .     S
V14     V22    10.0   .     S
V14     V30    10.0   .     S
V14     V32    10.0   .     S
V14     V46    10.0   .     S
V14     V53    10.0   .     S
V14     V42    10.0   1_655     S
V15     V24    10.0   1_554     S
V15     V23    10.0   .     S
V15     V31    10.0   .     S
V15     V8    10.0   1_554     S
V15     V29    10.0   1_565     S
V15     V47    10.0   .     S
V15     V56    10.0   1_554     S
V15     V43    10.0   1_655     S
V16     V23    10.0   .     S
V16     V24    10.0   .     S
V16     V32    10.0   .     S
V16     V30    10.0   1_565     S
V16     V48    10.0   .     S
V16     V55    10.0   .     S
V16     V44    10.0   1_655     S
V17     V3    10.0   1_545     S
V17     V25    10.0   .     S
V17     V49    10.0   .     S
V17     V41    10.0   .     S
V17     V53    10.0   .     S
V18     V9    10.0   1_556     S
V18     V4    10.0   1_545     S
V18     V26    10.0   .     S
V18     V50    10.0   .     S
V18     V42    10.0   .     S
V18     V54    10.0   .     S
V19     V27    10.0   .     S
V19     V51    10.0   .     S
V19     V43    10.0   .     S
V19     V55    10.0   .     S
V20     V11    10.0   1_556     S
V20     V28    10.0   .     S
V20     V52    10.0   .     S
V20     V44    10.0   .     S
V20     V56    10.0   .     S
V21     V7    10.0   1_545     S
V21     V29    10.0   .     S
V21     V53    10.0   .     S
V21     V45    10.0   .     S
V21     V49    10.0   1_655     S
V22     V13    10.0   1_556     S
V22     V8    10.0   1_545     S
V22     V30    10.0   .     S
V22     V54    10.0   .     S
V22     V46    10.0   .     S
V22     V50    10.0   1_655     S
V23     V31    10.0   .     S
V23     V55    10.0   .     S
V23     V47    10.0   .     S
V23     V51    10.0   1_655     S
V24     V15    10.0   1_556     S
V24     V32    10.0   .     S
V24     V56    10.0   .     S
V24     V48    10.0   .     S
V24     V52    10.0   1_655     S
V25     V3    10.0   1_545     S
V25     V4    10.0   1_544     S
V25     V11    10.0   1_545     S
V25     V61    10.0   .     S
V25     V39    10.0   1_545     S
V25     V57    10.0   .     S
V26     V4    10.0   1_545     S
V26     V3    10.0   1_545     S
V26     V12    10.0   1_545     S
V26     V62    10.0   .     S
V26     V40    10.0   1_545     S
V26     V58    10.0   .     S
V27     V2    10.0   1_554     S
V27     V63    10.0   .     S
V27     V37    10.0   .     S
V27     V59    10.0   .     S
V28     V64    10.0   .     S
V28     V38    10.0   .     S
V28     V60    10.0   .     S
V29     V7    10.0   1_545     S
V29     V8    10.0   1_544     S
V29     V15    10.0   1_545     S
V29     V57    10.0   1_655     S
V29     V35    10.0   1_645     S
V29     V61    10.0   .     S
V30     V8    10.0   1_545     S
V30     V7    10.0   1_545     S
V30     V16    10.0   1_545     S
V30     V58    10.0   1_655     S
V30     V36    10.0   1_645     S
V30     V62    10.0   .     S
V31     V6    10.0   1_554     S
V31     V59    10.0   1_655     S
V31     V33    10.0   1_655     S
V31     V63    10.0   .     S
V32     V60    10.0   1_655     S
V32     V34    10.0   1_655     S
V32     V64    10.0   .     S
V33     V41    10.0   .     S
V33     V49    10.0   .     S
V33     V60    10.0   .     S
V33     V51    10.0   .     S
V33     V59    10.0   .     S
V33     V5    10.0   1_455     S
V33     V31    10.0   1_455     S
V34     V42    10.0   .     S
V34     V50    10.0   .     S
V34     V59    10.0   1_556     S
V34     V52    10.0   .     S
V34     V60    10.0   .     S
V34     V6    10.0   1_455     S
V34     V32    10.0   1_455     S
V35     V43    10.0   .     S
V35     V51    10.0   .     S
V35     V58    10.0   1_565     S
V35     V49    10.0   1_565     S
V35     V57    10.0   1_565     S
V35     V7    10.0   1_455     S
V35     V29    10.0   1_465     S
V36     V44    10.0   .     S
V36     V52    10.0   .     S
V36     V57    10.0   1_566     S
V36     V50    10.0   1_565     S
V36     V58    10.0   1_565     S
V36     V8    10.0   1_455     S
V36     V30    10.0   1_465     S
V37     V45    10.0   .     S
V37     V53    10.0   .     S
V37     V64    10.0   .     S
V37     V55    10.0   .     S
V37     V63    10.0   .     S
V38     V46    10.0   .     S
V38     V54    10.0   .     S
V38     V63    10.0   1_556     S
V38     V56    10.0   .     S
V38     V64    10.0   .     S
V39     V47    10.0   .     S
V39     V55    10.0   .     S
V39     V62    10.0   1_565     S
V39     V53    10.0   1_565     S
V39     V61    10.0   1_565     S
V39     V25    10.0   1_565     S
V40     V48    10.0   .     S
V40     V56    10.0   .     S
V40     V61    10.0   1_566     S
V40     V54    10.0   1_565     S
V40     V62    10.0   1_565     S
V40     V26    10.0   1_565     S
V41     V50    10.0   1_554     S
V41     V57    10.0   .     S
V41     V49    10.0   .     S
V41     V59    10.0   .     S
V41     V13    10.0   1_455     S
V42     V49    10.0   .     S
V42     V58    10.0   .     S
V42     V50    10.0   .     S
V42     V60    10.0   .     S
V42     V14    10.0   1_455     S
V43     V52    10.0   1_554     S
V43     V59    10.0   .     S
V43     V51    10.0   .     S
V43     V57    10.0   1_565     S
V43     V15    10.0   1_455     S
V44     V51    10.0   .     S
V44     V60    10.0   .     S
V44     V52    10.0   .     S
V44     V58    10.0   1_565     S
V44     V16    10.0   1_455     S
V45     V54    10.0   1_554     S
V45     V61    10.0   .     S
V45     V53    10.0   .     S
V45     V63    10.0   .     S
V46     V53    10.0   .     S
V46     V62    10.0   .     S
V46     V54    10.0   .     S
V46     V64    10.0   .     S
V47     V56    10.0   1_554     S
V47     V63    10.0   .     S
V47     V55    10.0   .     S
V47     V61    10.0   1_565     S
V48     V55    10.0   .     S
V48     V64    10.0   .     S
V48     V56    10.0   .     S
V48     V62    10.0   1_565     S
V49     V35    10.0   1_545     S
V49     V58    10.0   .     S
V49     V21    10.0   1_455     S
V50     V41    10.0   1_556     S
V50     V36    10.0   1_545     S
V50     V57    10.0   1_556     S
V50     V9    10.0   1_556     S
V50     V22    10.0   1_455     S
V51     V60    10.0   .     S
V51     V23    10.0   1_455     S
V52     V43    10.0   1_556     S
V52     V59    10.0   1_556     S
V52     V11    10.0   1_556     S
V52     V24    10.0   1_455     S
V53     V39    10.0   1_545     S
V53     V62    10.0   .     S
V54     V45    10.0   1_556     S
V54     V40    10.0   1_545     S
V54     V61    10.0   1_556     S
V54     V13    10.0   1_556     S
V55     V64    10.0   .     S
V56     V47    10.0   1_556     S
V56     V63    10.0   1_556     S
V56     V15    10.0   1_556     S
V57     V8    10.0   1_444     S
V57     V36    10.0   1_544     S
V57     V35    10.0   1_545     S
V57     V43    10.0   1_545     S
V57     V50    10.0   1_554     S
V57     V29    10.0   1_455     S
V58     V7    10.0   1_445     S
V58     V35    10.0   1_545     S
V58     V36    10.0   1_545     S
V58     V44    10.0   1_545     S
V58     V30    10.0   1_455     S
V59     V6    10.0   1_454     S
V59     V34    10.0   1_554     S
V59     V52    10.0   1_554     S
V59     V31    10.0   1_455     S
V60     V5    10.0   1_455     S
V60     V32    10.0   1_455     S
V61     V4    10.0   1_544     S
V61     V40    10.0   1_544     S
V61     V39    10.0   1_545     S
V61     V47    10.0   1_545     S
V61     V54    10.0   1_554     S
V62     V3    10.0   1_545     S
V62     V39    10.0   1_545     S
V62     V40    10.0   1_545     S
V62     V48    10.0   1_545     S
V63     V2    10.0   1_554     S
V63     V38    10.0   1_554     S
V63     V56    10.0   1_554     S
