data_vmu
_audit_creation_date              2019-12-31
_audit_creation_method            'Pymatgen'
_symmetry_space_group_name_H-M    'P1'
_symmetry_Int_Tables_number       1
loop_
_symmetry_equiv_pos_as_xyz
  x,y,z
_cell_length_a                    36.0079
_cell_length_b                    30.0
_cell_length_c                    39.5772
_cell_angle_alpha                 90.0
_cell_angle_beta                 103.5229
_cell_angle_gamma                 90.0
loop_
_atom_site_label
_atom_site_type_symbol
_atom_site_fract_x
_atom_site_fract_y
_atom_site_fract_z
V1     V     0.6428   0.0242   0.1568
V2     V     0.6428   0.0242   0.6568
V3     V     0.6428   0.3575   0.1568
V4     V     0.6428   0.3575   0.6568
V5     V     0.6428   0.6908   0.1568
V6     V     0.6428   0.6908   0.6568
V7     V     0.8572   0.1425   0.3432
V8     V     0.8572   0.1425   0.8432
V9     V     0.8572   0.4758   0.3432
V10     V     0.8572   0.4758   0.8432
V11     V     0.8572   0.8092   0.3432
V12     V     0.8572   0.8092   0.8432
V13     V     0.6428   0.3092   0.4068
V14     V     0.6428   0.3092   0.9068
V15     V     0.6428   0.6425   0.4068
V16     V     0.6428   0.6425   0.9068
V17     V     0.6428   0.9758   0.4068
V18     V     0.6428   0.9758   0.9068
V19     V     0.8572   0.1908   0.0932
V20     V     0.8572   0.1908   0.5932
V21     V     0.8572   0.5242   0.0932
V22     V     0.8572   0.5242   0.5932
V23     V     0.8572   0.8575   0.0932
V24     V     0.8572   0.8575   0.5932
V25     V     0.3572   0.3092   0.3432
V26     V     0.3572   0.3092   0.8432
V27     V     0.3572   0.6425   0.3432
V28     V     0.3572   0.6425   0.8432
V29     V     0.3572   0.9758   0.3432
V30     V     0.3572   0.9758   0.8432
V31     V     0.1428   0.1908   0.1568
V32     V     0.1428   0.1908   0.6568
V33     V     0.1428   0.5242   0.1568
V34     V     0.1428   0.5242   0.6568
V35     V     0.1428   0.8575   0.1568
V36     V     0.1428   0.8575   0.6568
V37     V     0.3572   0.0242   0.0932
V38     V     0.3572   0.0242   0.5932
V39     V     0.3572   0.3575   0.0932
V40     V     0.3572   0.3575   0.5932
V41     V     0.3572   0.6908   0.0932
V42     V     0.3572   0.6908   0.5932
V43     V     0.1428   0.1425   0.4068
V44     V     0.1428   0.1425   0.9068
V45     V     0.1428   0.4758   0.4068
V46     V     0.1428   0.4758   0.9068
V47     V     0.1428   0.8092   0.4068
V48     V     0.1428   0.8092   0.9068
loop_
_geom_bond_atom_site_label_1
_geom_bond_atom_site_label_2
_geom_bond_distance
_geom_bond_site_symmetry_2
_ccdc_geom_bond_type
V1     V17    10.0   1_545     S
V1     V19    10.0   .     S
V1     V23    10.0   1_545     S
V1     V18    10.0   1_544     S
V1     V7    10.0   .     S
V1     V3    10.0   .     S
V1     V5    10.0   1_545     S
V1     V37    10.0   .     S
V2     V18    10.0   1_545     S
V2     V20    10.0   .     S
V2     V24    10.0   1_545     S
V2     V17    10.0   1_545     S
V2     V8    10.0   .     S
V2     V4    10.0   .     S
V2     V6    10.0   1_545     S
V2     V38    10.0   .     S
V3     V13    10.0   .     S
V3     V21    10.0   .     S
V3     V19    10.0   .     S
V3     V14    10.0   1_554     S
V3     V9    10.0   .     S
V3     V5    10.0   .     S
V3     V39    10.0   .     S
V4     V14    10.0   .     S
V4     V22    10.0   .     S
V4     V20    10.0   .     S
V4     V13    10.0   .     S
V4     V10    10.0   .     S
V4     V6    10.0   .     S
V4     V40    10.0   .     S
V5     V15    10.0   .     S
V5     V23    10.0   .     S
V5     V21    10.0   .     S
V5     V16    10.0   1_554     S
V5     V11    10.0   .     S
V5     V1    10.0   1_565     S
V5     V41    10.0   .     S
V6     V16    10.0   .     S
V6     V24    10.0   .     S
V6     V22    10.0   .     S
V6     V15    10.0   .     S
V6     V12    10.0   .     S
V6     V2    10.0   1_565     S
V6     V42    10.0   .     S
V7     V17    10.0   1_545     S
V7     V19    10.0   .     S
V7     V13    10.0   .     S
V7     V20    10.0   .     S
V7     V9    10.0   .     S
V7     V11    10.0   1_545     S
V7     V43    10.0   1_655     S
V8     V18    10.0   1_545     S
V8     V20    10.0   .     S
V8     V14    10.0   .     S
V8     V19    10.0   1_556     S
V8     V10    10.0   .     S
V8     V12    10.0   1_545     S
V8     V44    10.0   1_655     S
V9     V13    10.0   .     S
V9     V21    10.0   .     S
V9     V15    10.0   .     S
V9     V22    10.0   .     S
V9     V11    10.0   .     S
V9     V45    10.0   1_655     S
V10     V14    10.0   .     S
V10     V22    10.0   .     S
V10     V16    10.0   .     S
V10     V21    10.0   1_556     S
V10     V12    10.0   .     S
V10     V46    10.0   1_655     S
V11     V15    10.0   .     S
V11     V23    10.0   .     S
V11     V17    10.0   .     S
V11     V24    10.0   .     S
V11     V7    10.0   1_565     S
V11     V47    10.0   1_655     S
V12     V16    10.0   .     S
V12     V24    10.0   .     S
V12     V18    10.0   .     S
V12     V23    10.0   1_556     S
V12     V8    10.0   1_565     S
V12     V48    10.0   1_655     S
V13     V20    10.0   .     S
V13     V17    10.0   1_545     S
V13     V15    10.0   .     S
V13     V25    10.0   .     S
V14     V3    10.0   1_556     S
V14     V19    10.0   1_556     S
V14     V18    10.0   1_545     S
V14     V16    10.0   .     S
V14     V26    10.0   .     S
V15     V22    10.0   .     S
V15     V17    10.0   .     S
V15     V27    10.0   .     S
V16     V5    10.0   1_556     S
V16     V21    10.0   1_556     S
V16     V18    10.0   .     S
V16     V28    10.0   .     S
V17     V7    10.0   1_565     S
V17     V1    10.0   1_565     S
V17     V2    10.0   1_565     S
V17     V24    10.0   .     S
V17     V13    10.0   1_565     S
V17     V29    10.0   .     S
V18     V8    10.0   1_565     S
V18     V2    10.0   1_565     S
V18     V1    10.0   1_566     S
V18     V23    10.0   1_556     S
V18     V14    10.0   1_565     S
V18     V30    10.0   .     S
V19     V23    10.0   1_545     S
V19     V21    10.0   .     S
V19     V14    10.0   1_554     S
V19     V8    10.0   1_554     S
V19     V31    10.0   1_655     S
V20     V24    10.0   1_545     S
V20     V22    10.0   .     S
V20     V32    10.0   1_655     S
V21     V23    10.0   .     S
V21     V16    10.0   1_554     S
V21     V10    10.0   1_554     S
V21     V33    10.0   1_655     S
V22     V24    10.0   .     S
V22     V34    10.0   1_655     S
V23     V1    10.0   1_565     S
V23     V19    10.0   1_565     S
V23     V18    10.0   1_554     S
V23     V12    10.0   1_554     S
V23     V35    10.0   1_655     S
V24     V2    10.0   1_565     S
V24     V20    10.0   1_565     S
V24     V36    10.0   1_655     S
V25     V39    10.0   .     S
V25     V31    10.0   .     S
V25     V43    10.0   .     S
V25     V45    10.0   .     S
V25     V40    10.0   .     S
V25     V29    10.0   1_545     S
V25     V27    10.0   .     S
V26     V40    10.0   .     S
V26     V32    10.0   .     S
V26     V44    10.0   .     S
V26     V46    10.0   .     S
V26     V39    10.0   1_556     S
V26     V30    10.0   1_545     S
V26     V28    10.0   .     S
V27     V41    10.0   .     S
V27     V33    10.0   .     S
V27     V45    10.0   .     S
V27     V47    10.0   .     S
V27     V42    10.0   .     S
V27     V29    10.0   .     S
V28     V42    10.0   .     S
V28     V34    10.0   .     S
V28     V46    10.0   .     S
V28     V48    10.0   .     S
V28     V41    10.0   1_556     S
V28     V30    10.0   .     S
V29     V37    10.0   1_565     S
V29     V35    10.0   .     S
V29     V47    10.0   .     S
V29     V43    10.0   1_565     S
V29     V38    10.0   1_565     S
V29     V25    10.0   1_565     S
V30     V38    10.0   1_565     S
V30     V36    10.0   .     S
V30     V48    10.0   .     S
V30     V44    10.0   1_565     S
V30     V37    10.0   1_566     S
V30     V26    10.0   1_565     S
V31     V37    10.0   .     S
V31     V44    10.0   1_554     S
V31     V39    10.0   .     S
V31     V35    10.0   1_545     S
V31     V33    10.0   .     S
V31     V43    10.0   .     S
V31     V19    10.0   1_455     S
V32     V38    10.0   .     S
V32     V43    10.0   .     S
V32     V40    10.0   .     S
V32     V36    10.0   1_545     S
V32     V34    10.0   .     S
V32     V44    10.0   .     S
V32     V20    10.0   1_455     S
V33     V39    10.0   .     S
V33     V46    10.0   1_554     S
V33     V41    10.0   .     S
V33     V35    10.0   .     S
V33     V45    10.0   .     S
V33     V21    10.0   1_455     S
V34     V40    10.0   .     S
V34     V45    10.0   .     S
V34     V42    10.0   .     S
V34     V36    10.0   .     S
V34     V46    10.0   .     S
V34     V22    10.0   1_455     S
V35     V41    10.0   .     S
V35     V48    10.0   1_554     S
V35     V37    10.0   1_565     S
V35     V31    10.0   1_565     S
V35     V47    10.0   .     S
V35     V23    10.0   1_455     S
V36     V42    10.0   .     S
V36     V47    10.0   .     S
V36     V38    10.0   1_565     S
V36     V32    10.0   1_565     S
V36     V48    10.0   .     S
V36     V24    10.0   1_455     S
V37     V35    10.0   1_545     S
V37     V29    10.0   1_545     S
V37     V30    10.0   1_544     S
V37     V44    10.0   1_554     S
V37     V39    10.0   .     S
V37     V41    10.0   1_545     S
V38     V36    10.0   1_545     S
V38     V30    10.0   1_545     S
V38     V29    10.0   1_545     S
V38     V43    10.0   .     S
V38     V40    10.0   .     S
V38     V42    10.0   1_545     S
V39     V26    10.0   1_554     S
V39     V46    10.0   1_554     S
V39     V41    10.0   .     S
V40     V45    10.0   .     S
V40     V42    10.0   .     S
V41     V28    10.0   1_554     S
V41     V48    10.0   1_554     S
V41     V37    10.0   1_565     S
V42     V47    10.0   .     S
V42     V38    10.0   1_565     S
V43     V29    10.0   1_545     S
V43     V45    10.0   .     S
V43     V47    10.0   1_545     S
V43     V7    10.0   1_455     S
V44     V31    10.0   1_556     S
V44     V30    10.0   1_545     S
V44     V37    10.0   1_556     S
V44     V46    10.0   .     S
V44     V48    10.0   1_545     S
V44     V8    10.0   1_455     S
V45     V47    10.0   .     S
V45     V9    10.0   1_455     S
V46     V33    10.0   1_556     S
V46     V39    10.0   1_556     S
V46     V48    10.0   .     S
V46     V10    10.0   1_455     S
V47     V43    10.0   1_565     S
V47     V11    10.0   1_455     S
V48     V35    10.0   1_556     S
V48     V41    10.0   1_556     S
V48     V44    10.0   1_565     S
V48     V12    10.0   1_455     S
