data_vmv
_audit_creation_date              2019-12-31
_audit_creation_method            'Pymatgen'
_symmetry_space_group_name_H-M    'P1'
_symmetry_Int_Tables_number       1
loop_
_symmetry_equiv_pos_as_xyz
  x,y,z
_cell_length_a                    30.0
_cell_length_b                    36.7976
_cell_length_c                    37.9688
_cell_angle_alpha                 90.0
_cell_angle_beta                 104.9348
_cell_angle_gamma                 90.0
loop_
_atom_site_label
_atom_site_type_symbol
_atom_site_fract_x
_atom_site_fract_y
_atom_site_fract_z
V1     V     0.2228   0.3334   0.1668
V2     V     0.2228   0.3334   0.6668
V3     V     0.2228   0.8334   0.1668
V4     V     0.2228   0.8334   0.6668
V5     V     0.5562   0.3334   0.1668
V6     V     0.5562   0.3334   0.6668
V7     V     0.5562   0.8334   0.1668
V8     V     0.5562   0.8334   0.6668
V9     V     0.8895   0.3334   0.1668
V10     V     0.8895   0.3334   0.6668
V11     V     0.8895   0.8334   0.1668
V12     V     0.8895   0.8334   0.6668
V13     V     0.1105   0.1666   0.3332
V14     V     0.1105   0.1666   0.8332
V15     V     0.1105   0.6666   0.3332
V16     V     0.1105   0.6666   0.8332
V17     V     0.4438   0.1666   0.3332
V18     V     0.4438   0.1666   0.8332
V19     V     0.4438   0.6666   0.3332
V20     V     0.4438   0.6666   0.8332
V21     V     0.7772   0.1666   0.3332
V22     V     0.7772   0.1666   0.8332
V23     V     0.7772   0.6666   0.3332
V24     V     0.7772   0.6666   0.8332
V25     V     0.0562   0.4166   0.4168
V26     V     0.0562   0.4166   0.9168
V27     V     0.0562   0.9166   0.4168
V28     V     0.0562   0.9166   0.9168
V29     V     0.3895   0.4166   0.4168
V30     V     0.3895   0.4166   0.9168
V31     V     0.3895   0.9166   0.4168
V32     V     0.3895   0.9166   0.9168
V33     V     0.7229   0.4166   0.4168
V34     V     0.7228   0.4166   0.9168
V35     V     0.7229   0.9166   0.4168
V36     V     0.7228   0.9166   0.9168
V37     V     0.2772   0.0834   0.0832
V38     V     0.2772   0.0834   0.5832
V39     V     0.2772   0.5834   0.0832
V40     V     0.2772   0.5834   0.5832
V41     V     0.6105   0.0834   0.0832
V42     V     0.6105   0.0834   0.5832
V43     V     0.6105   0.5834   0.0832
V44     V     0.6105   0.5834   0.5832
V45     V     0.9438   0.0834   0.0832
V46     V     0.9438   0.0834   0.5832
V47     V     0.9438   0.5834   0.0832
V48     V     0.9438   0.5834   0.5832
loop_
_geom_bond_atom_site_label_1
_geom_bond_atom_site_label_2
_geom_bond_distance
_geom_bond_site_symmetry_2
_ccdc_geom_bond_type
V1     V29    10.0   .     S
V1     V26    10.0   1_554     S
V1     V39    10.0   .     S
V1     V37    10.0   .     S
V1     V17    10.0   .     S
V1     V13    10.0   .     S
V1     V9    10.0   1_455     S
V1     V5    10.0   .     S
V2     V30    10.0   .     S
V2     V25    10.0   .     S
V2     V40    10.0   .     S
V2     V38    10.0   .     S
V2     V18    10.0   .     S
V2     V14    10.0   .     S
V2     V10    10.0   1_455     S
V2     V6    10.0   .     S
V3     V31    10.0   .     S
V3     V28    10.0   1_554     S
V3     V37    10.0   1_565     S
V3     V39    10.0   .     S
V3     V19    10.0   .     S
V3     V15    10.0   .     S
V3     V11    10.0   1_455     S
V3     V7    10.0   .     S
V4     V32    10.0   .     S
V4     V27    10.0   .     S
V4     V38    10.0   1_565     S
V4     V40    10.0   .     S
V4     V20    10.0   .     S
V4     V16    10.0   .     S
V4     V12    10.0   1_455     S
V4     V8    10.0   .     S
V5     V33    10.0   .     S
V5     V30    10.0   1_554     S
V5     V43    10.0   .     S
V5     V41    10.0   .     S
V5     V21    10.0   .     S
V5     V17    10.0   .     S
V5     V9    10.0   .     S
V6     V34    10.0   .     S
V6     V29    10.0   .     S
V6     V44    10.0   .     S
V6     V42    10.0   .     S
V6     V22    10.0   .     S
V6     V18    10.0   .     S
V6     V10    10.0   .     S
V7     V35    10.0   .     S
V7     V32    10.0   1_554     S
V7     V41    10.0   1_565     S
V7     V43    10.0   .     S
V7     V23    10.0   .     S
V7     V19    10.0   .     S
V7     V11    10.0   .     S
V8     V36    10.0   .     S
V8     V31    10.0   .     S
V8     V42    10.0   1_565     S
V8     V44    10.0   .     S
V8     V24    10.0   .     S
V8     V20    10.0   .     S
V8     V12    10.0   .     S
V9     V25    10.0   1_655     S
V9     V34    10.0   1_554     S
V9     V47    10.0   .     S
V9     V45    10.0   .     S
V9     V13    10.0   1_655     S
V9     V21    10.0   .     S
V9     V1    10.0   1_655     S
V10     V26    10.0   1_655     S
V10     V33    10.0   .     S
V10     V48    10.0   .     S
V10     V46    10.0   .     S
V10     V14    10.0   1_655     S
V10     V22    10.0   .     S
V10     V2    10.0   1_655     S
V11     V27    10.0   1_655     S
V11     V36    10.0   1_554     S
V11     V45    10.0   1_565     S
V11     V47    10.0   .     S
V11     V15    10.0   1_655     S
V11     V23    10.0   .     S
V11     V3    10.0   1_655     S
V12     V28    10.0   1_655     S
V12     V35    10.0   .     S
V12     V46    10.0   1_565     S
V12     V48    10.0   .     S
V12     V16    10.0   1_655     S
V12     V24    10.0   .     S
V12     V4    10.0   1_655     S
V13     V25    10.0   .     S
V13     V45    10.0   1_455     S
V13     V9    10.0   1_455     S
V13     V17    10.0   .     S
V13     V21    10.0   1_455     S
V13     V38    10.0   .     S
V13     V27    10.0   1_545     S
V14     V26    10.0   .     S
V14     V46    10.0   1_455     S
V14     V10    10.0   1_455     S
V14     V18    10.0   .     S
V14     V22    10.0   1_455     S
V14     V37    10.0   1_556     S
V14     V28    10.0   1_545     S
V15     V27    10.0   .     S
V15     V47    10.0   1_455     S
V15     V11    10.0   1_455     S
V15     V19    10.0   .     S
V15     V23    10.0   1_455     S
V15     V40    10.0   .     S
V15     V25    10.0   .     S
V16     V28    10.0   .     S
V16     V48    10.0   1_455     S
V16     V12    10.0   1_455     S
V16     V20    10.0   .     S
V16     V24    10.0   1_455     S
V16     V39    10.0   1_556     S
V16     V26    10.0   .     S
V17     V29    10.0   .     S
V17     V37    10.0   .     S
V17     V21    10.0   .     S
V17     V42    10.0   .     S
V17     V31    10.0   1_545     S
V18     V30    10.0   .     S
V18     V38    10.0   .     S
V18     V22    10.0   .     S
V18     V41    10.0   1_556     S
V18     V32    10.0   1_545     S
V19     V31    10.0   .     S
V19     V39    10.0   .     S
V19     V23    10.0   .     S
V19     V44    10.0   .     S
V19     V29    10.0   .     S
V20     V32    10.0   .     S
V20     V40    10.0   .     S
V20     V24    10.0   .     S
V20     V43    10.0   1_556     S
V20     V30    10.0   .     S
V21     V33    10.0   .     S
V21     V41    10.0   .     S
V21     V13    10.0   1_655     S
V21     V46    10.0   .     S
V21     V35    10.0   1_545     S
V22     V34    10.0   .     S
V22     V42    10.0   .     S
V22     V14    10.0   1_655     S
V22     V45    10.0   1_556     S
V22     V36    10.0   1_545     S
V23     V35    10.0   .     S
V23     V43    10.0   .     S
V23     V15    10.0   1_655     S
V23     V48    10.0   .     S
V23     V33    10.0   .     S
V24     V36    10.0   .     S
V24     V44    10.0   .     S
V24     V16    10.0   1_655     S
V24     V47    10.0   1_556     S
V24     V34    10.0   .     S
V25     V9    10.0   1_455     S
V25     V48    10.0   1_455     S
V25     V29    10.0   .     S
V25     V33    10.0   1_455     S
V25     V40    10.0   .     S
V26     V10    10.0   1_455     S
V26     V1    10.0   1_556     S
V26     V47    10.0   1_456     S
V26     V30    10.0   .     S
V26     V34    10.0   1_455     S
V26     V39    10.0   1_556     S
V27     V11    10.0   1_455     S
V27     V13    10.0   1_565     S
V27     V46    10.0   1_465     S
V27     V31    10.0   .     S
V27     V35    10.0   1_455     S
V27     V38    10.0   1_565     S
V28     V12    10.0   1_455     S
V28     V3    10.0   1_556     S
V28     V14    10.0   1_565     S
V28     V45    10.0   1_466     S
V28     V32    10.0   .     S
V28     V36    10.0   1_455     S
V28     V37    10.0   1_566     S
V29     V40    10.0   .     S
V29     V33    10.0   .     S
V29     V44    10.0   .     S
V30     V5    10.0   1_556     S
V30     V39    10.0   1_556     S
V30     V34    10.0   .     S
V30     V43    10.0   1_556     S
V31     V17    10.0   1_565     S
V31     V38    10.0   1_565     S
V31     V35    10.0   .     S
V31     V42    10.0   1_565     S
V32     V7    10.0   1_556     S
V32     V18    10.0   1_565     S
V32     V37    10.0   1_566     S
V32     V36    10.0   .     S
V32     V41    10.0   1_566     S
V33     V44    10.0   .     S
V33     V25    10.0   1_655     S
V33     V48    10.0   .     S
V34     V9    10.0   1_556     S
V34     V43    10.0   1_556     S
V34     V26    10.0   1_655     S
V34     V47    10.0   1_556     S
V35     V21    10.0   1_565     S
V35     V42    10.0   1_565     S
V35     V27    10.0   1_655     S
V35     V46    10.0   1_565     S
V36     V11    10.0   1_556     S
V36     V22    10.0   1_565     S
V36     V41    10.0   1_566     S
V36     V28    10.0   1_655     S
V36     V45    10.0   1_566     S
V37     V3    10.0   1_545     S
V37     V14    10.0   1_554     S
V37     V32    10.0   1_544     S
V37     V45    10.0   1_455     S
V37     V41    10.0   .     S
V37     V28    10.0   1_544     S
V38     V4    10.0   1_545     S
V38     V31    10.0   1_545     S
V38     V46    10.0   1_455     S
V38     V42    10.0   .     S
V38     V27    10.0   1_545     S
V39     V16    10.0   1_554     S
V39     V30    10.0   1_554     S
V39     V47    10.0   1_455     S
V39     V43    10.0   .     S
V39     V26    10.0   1_554     S
V40     V48    10.0   1_455     S
V40     V44    10.0   .     S
V41     V7    10.0   1_545     S
V41     V18    10.0   1_554     S
V41     V36    10.0   1_544     S
V41     V45    10.0   .     S
V41     V32    10.0   1_544     S
V42     V8    10.0   1_545     S
V42     V35    10.0   1_545     S
V42     V46    10.0   .     S
V42     V31    10.0   1_545     S
V43     V20    10.0   1_554     S
V43     V34    10.0   1_554     S
V43     V47    10.0   .     S
V43     V30    10.0   1_554     S
V44     V48    10.0   .     S
V45     V11    10.0   1_545     S
V45     V13    10.0   1_655     S
V45     V22    10.0   1_554     S
V45     V28    10.0   1_644     S
V45     V37    10.0   1_655     S
V45     V36    10.0   1_544     S
V46     V12    10.0   1_545     S
V46     V14    10.0   1_655     S
V46     V27    10.0   1_645     S
V46     V38    10.0   1_655     S
V46     V35    10.0   1_545     S
V47     V15    10.0   1_655     S
V47     V24    10.0   1_554     S
V47     V26    10.0   1_654     S
V47     V39    10.0   1_655     S
V47     V34    10.0   1_554     S
V48     V16    10.0   1_655     S
V48     V25    10.0   1_655     S
V48     V40    10.0   1_655     S
