data_vmw
_audit_creation_date              2019-12-31
_audit_creation_method            'Pymatgen'
_symmetry_space_group_name_H-M    'P1'
_symmetry_Int_Tables_number       1
loop_
_symmetry_equiv_pos_as_xyz
  x,y,z
_cell_length_a                    35.8011
_cell_length_b                    29.9997
_cell_length_c                    39.7908
_cell_angle_alpha                 90.0
_cell_angle_beta                 104.3882
_cell_angle_gamma                 90.0
loop_
_atom_site_label
_atom_site_type_symbol
_atom_site_fract_x
_atom_site_fract_y
_atom_site_fract_z
V1     V     0.1066   0.233   0.3421
V2     V     0.1066   0.233   0.8421
V3     V     0.1066   0.5663   0.3421
V4     V     0.1066   0.5663   0.8421
V5     V     0.1066   0.8996   0.3421
V6     V     0.1066   0.8996   0.8421
V7     V     0.8934   0.1004   0.1579
V8     V     0.8934   0.1004   0.6579
V9     V     0.8934   0.4337   0.1579
V10     V     0.8934   0.4337   0.6579
V11     V     0.8934   0.767   0.1579
V12     V     0.8934   0.767   0.6579
V13     V     0.8934   0.0663   0.4079
V14     V     0.8934   0.0663   0.9079
V15     V     0.8934   0.3996   0.4079
V16     V     0.8934   0.3996   0.9079
V17     V     0.8934   0.733   0.4079
V18     V     0.8934   0.733   0.9079
V19     V     0.1066   0.267   0.0921
V20     V     0.1066   0.267   0.5921
V21     V     0.1066   0.6004   0.0921
V22     V     0.1066   0.6004   0.5921
V23     V     0.1066   0.9337   0.0921
V24     V     0.1066   0.9337   0.5921
V25     V     0.3934   0.233   0.1579
V26     V     0.3934   0.233   0.6579
V27     V     0.3934   0.5663   0.1579
V28     V     0.3934   0.5663   0.6579
V29     V     0.3934   0.8996   0.1579
V30     V     0.3934   0.8996   0.6579
V31     V     0.6066   0.1004   0.3421
V32     V     0.6066   0.1004   0.8421
V33     V     0.6066   0.4337   0.3421
V34     V     0.6066   0.4337   0.8421
V35     V     0.6066   0.767   0.3421
V36     V     0.6066   0.767   0.8421
V37     V     0.6066   0.0663   0.0921
V38     V     0.6066   0.0663   0.5921
V39     V     0.6066   0.3996   0.0921
V40     V     0.6066   0.3996   0.5921
V41     V     0.6066   0.733   0.0921
V42     V     0.6066   0.733   0.5921
V43     V     0.3934   0.267   0.4079
V44     V     0.3934   0.267   0.9079
V45     V     0.3934   0.6004   0.4079
V46     V     0.3934   0.6004   0.9079
V47     V     0.3934   0.9337   0.4079
V48     V     0.3934   0.9337   0.9079
loop_
_geom_bond_atom_site_label_1
_geom_bond_atom_site_label_2
_geom_bond_distance
_geom_bond_site_symmetry_2
_ccdc_geom_bond_type
V1     V7    10.0   1_455     S
V1     V15    10.0   1_455     S
V1     V20    10.0   .     S
V1     V13    10.0   1_455     S
V1     V19    10.0   .     S
V1     V5    10.0   1_545     S
V1     V3    10.0   .     S
V1     V43    10.0   .     S
V2     V8    10.0   1_455     S
V2     V16    10.0   1_455     S
V2     V19    10.0   1_556     S
V2     V14    10.0   1_455     S
V2     V20    10.0   .     S
V2     V6    10.0   1_545     S
V2     V4    10.0   .     S
V2     V44    10.0   .     S
V3     V9    10.0   1_455     S
V3     V17    10.0   1_455     S
V3     V22    10.0   .     S
V3     V15    10.0   1_455     S
V3     V21    10.0   .     S
V3     V5    10.0   .     S
V3     V45    10.0   .     S
V4     V10    10.0   1_455     S
V4     V18    10.0   1_455     S
V4     V21    10.0   1_556     S
V4     V16    10.0   1_455     S
V4     V22    10.0   .     S
V4     V6    10.0   .     S
V4     V46    10.0   .     S
V5     V11    10.0   1_455     S
V5     V13    10.0   1_465     S
V5     V24    10.0   .     S
V5     V17    10.0   1_455     S
V5     V23    10.0   .     S
V5     V1    10.0   1_565     S
V5     V47    10.0   .     S
V6     V12    10.0   1_455     S
V6     V14    10.0   1_465     S
V6     V23    10.0   1_556     S
V6     V18    10.0   1_455     S
V6     V24    10.0   .     S
V6     V2    10.0   1_565     S
V6     V48    10.0   .     S
V7     V23    10.0   1_645     S
V7     V14    10.0   1_554     S
V7     V1    10.0   1_655     S
V7     V13    10.0   .     S
V7     V19    10.0   1_655     S
V7     V9    10.0   .     S
V7     V11    10.0   1_545     S
V7     V37    10.0   .     S
V8     V24    10.0   1_645     S
V8     V13    10.0   .     S
V8     V2    10.0   1_655     S
V8     V14    10.0   .     S
V8     V20    10.0   1_655     S
V8     V10    10.0   .     S
V8     V12    10.0   1_545     S
V8     V38    10.0   .     S
V9     V19    10.0   1_655     S
V9     V16    10.0   1_554     S
V9     V3    10.0   1_655     S
V9     V15    10.0   .     S
V9     V21    10.0   1_655     S
V9     V11    10.0   .     S
V9     V39    10.0   .     S
V10     V20    10.0   1_655     S
V10     V15    10.0   .     S
V10     V4    10.0   1_655     S
V10     V16    10.0   .     S
V10     V22    10.0   1_655     S
V10     V12    10.0   .     S
V10     V40    10.0   .     S
V11     V21    10.0   1_655     S
V11     V18    10.0   1_554     S
V11     V5    10.0   1_655     S
V11     V17    10.0   .     S
V11     V23    10.0   1_655     S
V11     V7    10.0   1_565     S
V11     V41    10.0   .     S
V12     V22    10.0   1_655     S
V12     V17    10.0   .     S
V12     V6    10.0   1_655     S
V12     V18    10.0   .     S
V12     V24    10.0   1_655     S
V12     V8    10.0   1_565     S
V12     V42    10.0   .     S
V13     V5    10.0   1_645     S
V13     V24    10.0   1_645     S
V13     V1    10.0   1_655     S
V13     V15    10.0   .     S
V13     V17    10.0   1_545     S
V13     V31    10.0   .     S
V14     V7    10.0   1_556     S
V14     V6    10.0   1_645     S
V14     V23    10.0   1_646     S
V14     V2    10.0   1_655     S
V14     V16    10.0   .     S
V14     V18    10.0   1_545     S
V14     V32    10.0   .     S
V15     V1    10.0   1_655     S
V15     V20    10.0   1_655     S
V15     V3    10.0   1_655     S
V15     V17    10.0   .     S
V15     V33    10.0   .     S
V16     V9    10.0   1_556     S
V16     V2    10.0   1_655     S
V16     V19    10.0   1_656     S
V16     V4    10.0   1_655     S
V16     V18    10.0   .     S
V16     V34    10.0   .     S
V17     V3    10.0   1_655     S
V17     V22    10.0   1_655     S
V17     V5    10.0   1_655     S
V17     V13    10.0   1_565     S
V17     V35    10.0   .     S
V18     V11    10.0   1_556     S
V18     V4    10.0   1_655     S
V18     V21    10.0   1_656     S
V18     V6    10.0   1_655     S
V18     V14    10.0   1_565     S
V18     V36    10.0   .     S
V19     V9    10.0   1_455     S
V19     V2    10.0   1_554     S
V19     V16    10.0   1_454     S
V19     V7    10.0   1_455     S
V19     V23    10.0   1_545     S
V19     V21    10.0   .     S
V19     V25    10.0   .     S
V20     V10    10.0   1_455     S
V20     V15    10.0   1_455     S
V20     V8    10.0   1_455     S
V20     V24    10.0   1_545     S
V20     V22    10.0   .     S
V20     V26    10.0   .     S
V21     V11    10.0   1_455     S
V21     V4    10.0   1_554     S
V21     V18    10.0   1_454     S
V21     V9    10.0   1_455     S
V21     V23    10.0   .     S
V21     V27    10.0   .     S
V22     V12    10.0   1_455     S
V22     V17    10.0   1_455     S
V22     V10    10.0   1_455     S
V22     V24    10.0   .     S
V22     V28    10.0   .     S
V23     V7    10.0   1_465     S
V23     V6    10.0   1_554     S
V23     V14    10.0   1_464     S
V23     V11    10.0   1_455     S
V23     V19    10.0   1_565     S
V23     V29    10.0   .     S
V24     V8    10.0   1_465     S
V24     V13    10.0   1_465     S
V24     V12    10.0   1_455     S
V24     V20    10.0   1_565     S
V24     V30    10.0   .     S
V25     V43    10.0   .     S
V25     V31    10.0   .     S
V25     V37    10.0   .     S
V25     V39    10.0   .     S
V25     V44    10.0   1_554     S
V25     V29    10.0   1_545     S
V25     V27    10.0   .     S
V26     V44    10.0   .     S
V26     V32    10.0   .     S
V26     V38    10.0   .     S
V26     V40    10.0   .     S
V26     V43    10.0   .     S
V26     V30    10.0   1_545     S
V26     V28    10.0   .     S
V27     V45    10.0   .     S
V27     V33    10.0   .     S
V27     V39    10.0   .     S
V27     V41    10.0   .     S
V27     V46    10.0   1_554     S
V27     V29    10.0   .     S
V28     V46    10.0   .     S
V28     V34    10.0   .     S
V28     V40    10.0   .     S
V28     V42    10.0   .     S
V28     V45    10.0   .     S
V28     V30    10.0   .     S
V29     V47    10.0   .     S
V29     V35    10.0   .     S
V29     V41    10.0   .     S
V29     V37    10.0   1_565     S
V29     V48    10.0   1_554     S
V29     V25    10.0   1_565     S
V30     V48    10.0   .     S
V30     V36    10.0   .     S
V30     V42    10.0   .     S
V30     V38    10.0   1_565     S
V30     V47    10.0   .     S
V30     V26    10.0   1_565     S
V31     V43    10.0   .     S
V31     V47    10.0   1_545     S
V31     V38    10.0   .     S
V31     V37    10.0   .     S
V31     V33    10.0   .     S
V31     V35    10.0   1_545     S
V32     V44    10.0   .     S
V32     V48    10.0   1_545     S
V32     V37    10.0   1_556     S
V32     V38    10.0   .     S
V32     V34    10.0   .     S
V32     V36    10.0   1_545     S
V33     V45    10.0   .     S
V33     V43    10.0   .     S
V33     V40    10.0   .     S
V33     V39    10.0   .     S
V33     V35    10.0   .     S
V34     V46    10.0   .     S
V34     V44    10.0   .     S
V34     V39    10.0   1_556     S
V34     V40    10.0   .     S
V34     V36    10.0   .     S
V35     V47    10.0   .     S
V35     V45    10.0   .     S
V35     V42    10.0   .     S
V35     V41    10.0   .     S
V35     V31    10.0   1_565     S
V36     V48    10.0   .     S
V36     V46    10.0   .     S
V36     V41    10.0   1_556     S
V36     V42    10.0   .     S
V36     V32    10.0   1_565     S
V37     V32    10.0   1_554     S
V37     V48    10.0   1_544     S
V37     V29    10.0   1_545     S
V37     V39    10.0   .     S
V37     V41    10.0   1_545     S
V38     V47    10.0   1_545     S
V38     V30    10.0   1_545     S
V38     V40    10.0   .     S
V38     V42    10.0   1_545     S
V39     V34    10.0   1_554     S
V39     V44    10.0   1_554     S
V39     V41    10.0   .     S
V40     V43    10.0   .     S
V40     V42    10.0   .     S
V41     V36    10.0   1_554     S
V41     V46    10.0   1_554     S
V41     V37    10.0   1_565     S
V42     V45    10.0   .     S
V42     V38    10.0   1_565     S
V43     V47    10.0   1_545     S
V43     V45    10.0   .     S
V44     V39    10.0   1_556     S
V44     V25    10.0   1_556     S
V44     V48    10.0   1_545     S
V44     V46    10.0   .     S
V45     V47    10.0   .     S
V46     V41    10.0   1_556     S
V46     V27    10.0   1_556     S
V46     V48    10.0   .     S
V47     V31    10.0   1_565     S
V47     V38    10.0   1_565     S
V47     V43    10.0   1_565     S
V48     V32    10.0   1_565     S
V48     V37    10.0   1_566     S
V48     V29    10.0   1_556     S
V48     V44    10.0   1_565     S
