data_vmx
_audit_creation_date              2019-12-31
_audit_creation_method            'Pymatgen'
_symmetry_space_group_name_H-M    'P1'
_symmetry_Int_Tables_number       1
loop_
_symmetry_equiv_pos_as_xyz
  x,y,z
_cell_length_a                    38.0756
_cell_length_b                    36.8723
_cell_length_c                    30.0
_cell_angle_alpha                 90.0
_cell_angle_beta                 102.1557
_cell_angle_gamma                 90.0
loop_
_atom_site_label
_atom_site_type_symbol
_atom_site_fract_x
_atom_site_fract_y
_atom_site_fract_z
V1     V     0.1163   0.8826   0.0311
V2     V     0.1163   0.8826   0.3644
V3     V     0.1163   0.8826   0.6978
V4     V     0.6163   0.8826   0.0311
V5     V     0.6163   0.8826   0.3644
V6     V     0.6163   0.8826   0.6978
V7     V     0.1337   0.6174   0.3022
V8     V     0.1337   0.6174   0.6356
V9     V     0.1337   0.6174   0.9689
V10     V     0.6337   0.6174   0.3022
V11     V     0.6337   0.6174   0.6356
V12     V     0.6337   0.6174   0.9689
V13     V     0.3837   0.8826   0.1356
V14     V     0.3837   0.8826   0.4689
V15     V     0.3837   0.8826   0.8022
V16     V     0.8837   0.8826   0.1356
V17     V     0.8837   0.8826   0.4689
V18     V     0.8837   0.8826   0.8022
V19     V     0.3663   0.6174   0.1978
V20     V     0.3663   0.6174   0.5311
V21     V     0.3663   0.6174   0.8644
V22     V     0.8663   0.6174   0.1978
V23     V     0.8663   0.6174   0.5311
V24     V     0.8663   0.6174   0.8644
V25     V     0.3837   0.1174   0.3022
V26     V     0.3837   0.1174   0.6356
V27     V     0.3837   0.1174   0.9689
V28     V     0.8837   0.1174   0.3022
V29     V     0.8837   0.1174   0.6356
V30     V     0.8837   0.1174   0.9689
V31     V     0.3663   0.3826   0.0311
V32     V     0.3663   0.3826   0.3644
V33     V     0.3663   0.3826   0.6978
V34     V     0.8663   0.3826   0.0311
V35     V     0.8663   0.3826   0.3644
V36     V     0.8663   0.3826   0.6978
V37     V     0.1163   0.1174   0.1978
V38     V     0.1163   0.1174   0.5311
V39     V     0.1163   0.1174   0.8644
V40     V     0.6163   0.1174   0.1978
V41     V     0.6163   0.1174   0.5311
V42     V     0.6163   0.1174   0.8644
V43     V     0.1337   0.3826   0.1356
V44     V     0.1337   0.3826   0.4689
V45     V     0.1337   0.3826   0.8022
V46     V     0.6337   0.3826   0.1356
V47     V     0.6337   0.3826   0.4689
V48     V     0.6337   0.3826   0.8022
loop_
_geom_bond_atom_site_label_1
_geom_bond_atom_site_label_2
_geom_bond_distance
_geom_bond_site_symmetry_2
_ccdc_geom_bond_type
V1     V16    10.0   1_455     S
V1     V18    10.0   1_454     S
V1     V9    10.0   1_554     S
V1     V13    10.0   .     S
V1     V2    10.0   .     S
V1     V3    10.0   1_554     S
V1     V37    10.0   1_565     S
V1     V39    10.0   1_564     S
V2     V17    10.0   1_455     S
V2     V16    10.0   1_455     S
V2     V7    10.0   .     S
V2     V14    10.0   .     S
V2     V3    10.0   .     S
V2     V38    10.0   1_565     S
V2     V37    10.0   1_565     S
V3     V18    10.0   1_455     S
V3     V17    10.0   1_455     S
V3     V8    10.0   .     S
V3     V15    10.0   .     S
V3     V1    10.0   1_556     S
V3     V39    10.0   1_565     S
V3     V38    10.0   1_565     S
V4     V13    10.0   .     S
V4     V15    10.0   1_554     S
V4     V12    10.0   1_554     S
V4     V16    10.0   .     S
V4     V5    10.0   .     S
V4     V6    10.0   1_554     S
V4     V40    10.0   1_565     S
V4     V42    10.0   1_564     S
V5     V14    10.0   .     S
V5     V13    10.0   .     S
V5     V10    10.0   .     S
V5     V17    10.0   .     S
V5     V6    10.0   .     S
V5     V41    10.0   1_565     S
V5     V40    10.0   1_565     S
V6     V15    10.0   .     S
V6     V14    10.0   .     S
V6     V11    10.0   .     S
V6     V18    10.0   .     S
V6     V4    10.0   1_556     S
V6     V42    10.0   1_565     S
V6     V41    10.0   1_565     S
V7     V22    10.0   1_455     S
V7     V9    10.0   1_554     S
V7     V8    10.0   .     S
V7     V19    10.0   .     S
V7     V20    10.0   .     S
V7     V44    10.0   .     S
V7     V43    10.0   .     S
V8     V23    10.0   1_455     S
V8     V9    10.0   .     S
V8     V20    10.0   .     S
V8     V21    10.0   .     S
V8     V45    10.0   .     S
V8     V44    10.0   .     S
V9     V1    10.0   1_556     S
V9     V24    10.0   1_455     S
V9     V7    10.0   1_556     S
V9     V21    10.0   .     S
V9     V19    10.0   1_556     S
V9     V43    10.0   1_556     S
V9     V45    10.0   .     S
V10     V19    10.0   .     S
V10     V12    10.0   1_554     S
V10     V11    10.0   .     S
V10     V22    10.0   .     S
V10     V23    10.0   .     S
V10     V47    10.0   .     S
V10     V46    10.0   .     S
V11     V20    10.0   .     S
V11     V12    10.0   .     S
V11     V23    10.0   .     S
V11     V24    10.0   .     S
V11     V48    10.0   .     S
V11     V47    10.0   .     S
V12     V4    10.0   1_556     S
V12     V21    10.0   .     S
V12     V10    10.0   1_556     S
V12     V24    10.0   .     S
V12     V22    10.0   1_556     S
V12     V46    10.0   1_556     S
V12     V48    10.0   .     S
V13     V19    10.0   .     S
V13     V14    10.0   .     S
V13     V15    10.0   1_554     S
V13     V27    10.0   1_564     S
V13     V25    10.0   1_565     S
V14     V20    10.0   .     S
V14     V15    10.0   .     S
V14     V25    10.0   1_565     S
V14     V26    10.0   1_565     S
V15     V4    10.0   1_556     S
V15     V21    10.0   .     S
V15     V13    10.0   1_556     S
V15     V26    10.0   1_565     S
V15     V27    10.0   1_565     S
V16     V1    10.0   1_655     S
V16     V2    10.0   1_655     S
V16     V22    10.0   .     S
V16     V17    10.0   .     S
V16     V18    10.0   1_554     S
V16     V30    10.0   1_564     S
V16     V28    10.0   1_565     S
V17     V2    10.0   1_655     S
V17     V3    10.0   1_655     S
V17     V23    10.0   .     S
V17     V18    10.0   .     S
V17     V28    10.0   1_565     S
V17     V29    10.0   1_565     S
V18     V3    10.0   1_655     S
V18     V1    10.0   1_656     S
V18     V24    10.0   .     S
V18     V16    10.0   1_556     S
V18     V29    10.0   1_565     S
V18     V30    10.0   1_565     S
V19     V21    10.0   1_554     S
V19     V20    10.0   .     S
V19     V9    10.0   1_554     S
V19     V31    10.0   .     S
V19     V32    10.0   .     S
V20     V21    10.0   .     S
V20     V32    10.0   .     S
V20     V33    10.0   .     S
V21     V19    10.0   1_556     S
V21     V33    10.0   .     S
V21     V31    10.0   1_556     S
V22     V7    10.0   1_655     S
V22     V24    10.0   1_554     S
V22     V23    10.0   .     S
V22     V12    10.0   1_554     S
V22     V34    10.0   .     S
V22     V35    10.0   .     S
V23     V8    10.0   1_655     S
V23     V24    10.0   .     S
V23     V35    10.0   .     S
V23     V36    10.0   .     S
V24     V9    10.0   1_655     S
V24     V22    10.0   1_556     S
V24     V36    10.0   .     S
V24     V34    10.0   1_556     S
V25     V14    10.0   1_545     S
V25     V13    10.0   1_545     S
V25     V40    10.0   .     S
V25     V41    10.0   .     S
V25     V32    10.0   .     S
V25     V37    10.0   .     S
V25     V27    10.0   1_554     S
V25     V26    10.0   .     S
V26     V15    10.0   1_545     S
V26     V14    10.0   1_545     S
V26     V41    10.0   .     S
V26     V42    10.0   .     S
V26     V33    10.0   .     S
V26     V38    10.0   .     S
V26     V27    10.0   .     S
V27     V13    10.0   1_546     S
V27     V15    10.0   1_545     S
V27     V42    10.0   .     S
V27     V40    10.0   1_556     S
V27     V31    10.0   1_556     S
V27     V39    10.0   .     S
V27     V25    10.0   1_556     S
V28     V17    10.0   1_545     S
V28     V16    10.0   1_545     S
V28     V37    10.0   1_655     S
V28     V38    10.0   1_655     S
V28     V35    10.0   .     S
V28     V40    10.0   .     S
V28     V30    10.0   1_554     S
V28     V29    10.0   .     S
V29     V18    10.0   1_545     S
V29     V17    10.0   1_545     S
V29     V38    10.0   1_655     S
V29     V39    10.0   1_655     S
V29     V36    10.0   .     S
V29     V41    10.0   .     S
V29     V30    10.0   .     S
V30     V16    10.0   1_546     S
V30     V18    10.0   1_545     S
V30     V39    10.0   1_655     S
V30     V37    10.0   1_656     S
V30     V34    10.0   1_556     S
V30     V42    10.0   .     S
V30     V28    10.0   1_556     S
V31     V21    10.0   1_554     S
V31     V27    10.0   1_554     S
V31     V46    10.0   .     S
V31     V32    10.0   .     S
V31     V33    10.0   1_554     S
V31     V43    10.0   .     S
V31     V45    10.0   1_554     S
V32     V47    10.0   .     S
V32     V33    10.0   .     S
V32     V44    10.0   .     S
V32     V43    10.0   .     S
V33     V48    10.0   .     S
V33     V31    10.0   1_556     S
V33     V45    10.0   .     S
V33     V44    10.0   .     S
V34     V24    10.0   1_554     S
V34     V30    10.0   1_554     S
V34     V43    10.0   1_655     S
V34     V35    10.0   .     S
V34     V36    10.0   1_554     S
V34     V46    10.0   .     S
V34     V48    10.0   1_554     S
V35     V44    10.0   1_655     S
V35     V36    10.0   .     S
V35     V47    10.0   .     S
V35     V46    10.0   .     S
V36     V45    10.0   1_655     S
V36     V34    10.0   1_556     S
V36     V48    10.0   .     S
V36     V47    10.0   .     S
V37     V1    10.0   1_545     S
V37     V2    10.0   1_545     S
V37     V28    10.0   1_455     S
V37     V30    10.0   1_454     S
V37     V43    10.0   .     S
V37     V39    10.0   1_554     S
V37     V38    10.0   .     S
V38     V2    10.0   1_545     S
V38     V3    10.0   1_545     S
V38     V29    10.0   1_455     S
V38     V28    10.0   1_455     S
V38     V44    10.0   .     S
V38     V39    10.0   .     S
V39     V3    10.0   1_545     S
V39     V1    10.0   1_546     S
V39     V30    10.0   1_455     S
V39     V29    10.0   1_455     S
V39     V45    10.0   .     S
V39     V37    10.0   1_556     S
V40     V4    10.0   1_545     S
V40     V5    10.0   1_545     S
V40     V27    10.0   1_554     S
V40     V46    10.0   .     S
V40     V42    10.0   1_554     S
V40     V41    10.0   .     S
V41     V5    10.0   1_545     S
V41     V6    10.0   1_545     S
V41     V47    10.0   .     S
V41     V42    10.0   .     S
V42     V6    10.0   1_545     S
V42     V4    10.0   1_546     S
V42     V48    10.0   .     S
V42     V40    10.0   1_556     S
V43     V9    10.0   1_554     S
V43     V34    10.0   1_455     S
V43     V44    10.0   .     S
V43     V45    10.0   1_554     S
V44     V35    10.0   1_455     S
V44     V45    10.0   .     S
V45     V36    10.0   1_455     S
V45     V43    10.0   1_556     S
V45     V31    10.0   1_556     S
V46     V12    10.0   1_554     S
V46     V47    10.0   .     S
V46     V48    10.0   1_554     S
V47     V48    10.0   .     S
V48     V46    10.0   1_556     S
V48     V34    10.0   1_556     S
