data_vmy
_audit_creation_date              2019-12-31
_audit_creation_method            'Pymatgen'
_symmetry_space_group_name_H-M    'P1'
_symmetry_Int_Tables_number       1
loop_
_symmetry_equiv_pos_as_xyz
  x,y,z
_cell_length_a                    24.8792
_cell_length_b                    36.2826
_cell_length_c                    33.3742
_cell_angle_alpha                 90.0
_cell_angle_beta                 100.8943
_cell_angle_gamma                 90.0
loop_
_atom_site_label
_atom_site_type_symbol
_atom_site_fract_x
_atom_site_fract_y
_atom_site_fract_z
V1     V     0.9138   0.201   0.3629
V2     V     0.9138   0.201   0.8629
V3     V     0.9138   0.701   0.3629
V4     V     0.9138   0.701   0.8629
V5     V     0.5862   0.201   0.1371
V6     V     0.5862   0.201   0.6371
V7     V     0.5862   0.701   0.1371
V8     V     0.5862   0.701   0.6371
V9     V     0.4138   0.299   0.3629
V10     V     0.4138   0.299   0.8629
V11     V     0.4138   0.799   0.3629
V12     V     0.4138   0.799   0.8629
V13     V     0.0862   0.299   0.1371
V14     V     0.0862   0.299   0.6371
V15     V     0.0862   0.799   0.1371
V16     V     0.0862   0.799   0.6371
V17     V     0.9138   0.049   0.1129
V18     V     0.9138   0.049   0.6129
V19     V     0.9138   0.549   0.1129
V20     V     0.9138   0.549   0.6129
V21     V     0.5862   0.049   0.3871
V22     V     0.5862   0.049   0.8871
V23     V     0.5862   0.549   0.3871
V24     V     0.5862   0.549   0.8871
V25     V     0.0862   0.451   0.3871
V26     V     0.0862   0.451   0.8871
V27     V     0.0862   0.951   0.3871
V28     V     0.0862   0.951   0.8871
V29     V     0.4138   0.451   0.1129
V30     V     0.4138   0.451   0.6129
V31     V     0.4138   0.951   0.1129
V32     V     0.4138   0.951   0.6129
loop_
_geom_bond_atom_site_label_1
_geom_bond_atom_site_label_2
_geom_bond_distance
_geom_bond_site_symmetry_2
_ccdc_geom_bond_type
V1     V25    10.0   1_655     S
V1     V5    10.0   .     S
V1     V13    10.0   1_655     S
V1     V17    10.0   .     S
V1     V21    10.0   .     S
V1     V18    10.0   .     S
V1     V27    10.0   1_645     S
V1     V14    10.0   1_655     S
V2     V26    10.0   1_655     S
V2     V6    10.0   .     S
V2     V14    10.0   1_655     S
V2     V18    10.0   .     S
V2     V22    10.0   .     S
V2     V17    10.0   1_556     S
V2     V28    10.0   1_645     S
V2     V13    10.0   1_656     S
V3     V27    10.0   1_655     S
V3     V7    10.0   .     S
V3     V15    10.0   1_655     S
V3     V19    10.0   .     S
V3     V23    10.0   .     S
V3     V20    10.0   .     S
V3     V25    10.0   1_655     S
V3     V16    10.0   1_655     S
V4     V28    10.0   1_655     S
V4     V8    10.0   .     S
V4     V16    10.0   1_655     S
V4     V20    10.0   .     S
V4     V24    10.0   .     S
V4     V19    10.0   1_556     S
V4     V26    10.0   1_655     S
V4     V15    10.0   1_656     S
V5     V29    10.0   .     S
V5     V9    10.0   .     S
V5     V17    10.0   .     S
V5     V22    10.0   1_554     S
V5     V31    10.0   1_545     S
V5     V21    10.0   .     S
V5     V10    10.0   1_554     S
V6     V30    10.0   .     S
V6     V10    10.0   .     S
V6     V18    10.0   .     S
V6     V21    10.0   .     S
V6     V32    10.0   1_545     S
V6     V22    10.0   .     S
V6     V9    10.0   .     S
V7     V31    10.0   .     S
V7     V11    10.0   .     S
V7     V19    10.0   .     S
V7     V24    10.0   1_554     S
V7     V29    10.0   .     S
V7     V23    10.0   .     S
V7     V12    10.0   1_554     S
V8     V32    10.0   .     S
V8     V12    10.0   .     S
V8     V20    10.0   .     S
V8     V23    10.0   .     S
V8     V30    10.0   .     S
V8     V24    10.0   .     S
V8     V11    10.0   .     S
V9     V25    10.0   .     S
V9     V30    10.0   .     S
V9     V23    10.0   .     S
V9     V29    10.0   .     S
V9     V13    10.0   .     S
V9     V21    10.0   .     S
V10     V26    10.0   .     S
V10     V29    10.0   1_556     S
V10     V24    10.0   .     S
V10     V30    10.0   .     S
V10     V14    10.0   .     S
V10     V22    10.0   .     S
V10     V5    10.0   1_556     S
V11     V27    10.0   .     S
V11     V32    10.0   .     S
V11     V21    10.0   1_565     S
V11     V31    10.0   .     S
V11     V15    10.0   .     S
V11     V23    10.0   .     S
V12     V28    10.0   .     S
V12     V31    10.0   1_556     S
V12     V22    10.0   1_565     S
V12     V32    10.0   .     S
V12     V16    10.0   .     S
V12     V24    10.0   .     S
V12     V7    10.0   1_556     S
V13     V25    10.0   .     S
V13     V26    10.0   1_554     S
V13     V29    10.0   .     S
V13     V19    10.0   1_455     S
V13     V1    10.0   1_455     S
V13     V17    10.0   1_455     S
V13     V2    10.0   1_454     S
V14     V26    10.0   .     S
V14     V25    10.0   .     S
V14     V30    10.0   .     S
V14     V20    10.0   1_455     S
V14     V2    10.0   1_455     S
V14     V18    10.0   1_455     S
V14     V1    10.0   1_455     S
V15     V27    10.0   .     S
V15     V28    10.0   1_554     S
V15     V31    10.0   .     S
V15     V17    10.0   1_465     S
V15     V3    10.0   1_455     S
V15     V19    10.0   1_455     S
V15     V4    10.0   1_454     S
V16     V28    10.0   .     S
V16     V27    10.0   .     S
V16     V32    10.0   .     S
V16     V18    10.0   1_465     S
V16     V4    10.0   1_455     S
V16     V20    10.0   1_455     S
V16     V3    10.0   1_455     S
V17     V15    10.0   1_645     S
V17     V13    10.0   1_655     S
V17     V22    10.0   1_554     S
V17     V28    10.0   1_644     S
V17     V2    10.0   1_554     S
V17     V27    10.0   1_645     S
V18     V16    10.0   1_645     S
V18     V14    10.0   1_655     S
V18     V21    10.0   .     S
V18     V27    10.0   1_645     S
V18     V28    10.0   1_645     S
V19     V13    10.0   1_655     S
V19     V15    10.0   1_655     S
V19     V24    10.0   1_554     S
V19     V26    10.0   1_654     S
V19     V4    10.0   1_554     S
V19     V25    10.0   1_655     S
V20     V14    10.0   1_655     S
V20     V16    10.0   1_655     S
V20     V23    10.0   .     S
V20     V25    10.0   1_655     S
V20     V26    10.0   1_655     S
V21     V11    10.0   1_545     S
V21     V32    10.0   1_545     S
V21     V31    10.0   1_545     S
V22     V12    10.0   1_545     S
V22     V5    10.0   1_556     S
V22     V17    10.0   1_556     S
V22     V31    10.0   1_546     S
V22     V32    10.0   1_545     S
V23     V30    10.0   .     S
V23     V29    10.0   .     S
V24     V7    10.0   1_556     S
V24     V19    10.0   1_556     S
V24     V29    10.0   1_556     S
V24     V30    10.0   .     S
V25     V1    10.0   1_455     S
V25     V30    10.0   .     S
V25     V20    10.0   1_455     S
V25     V3    10.0   1_455     S
V25     V19    10.0   1_455     S
V26     V2    10.0   1_455     S
V26     V13    10.0   1_556     S
V26     V29    10.0   1_556     S
V26     V19    10.0   1_456     S
V26     V4    10.0   1_455     S
V26     V20    10.0   1_455     S
V27     V3    10.0   1_455     S
V27     V32    10.0   .     S
V27     V18    10.0   1_465     S
V27     V1    10.0   1_465     S
V27     V17    10.0   1_465     S
V28     V4    10.0   1_455     S
V28     V15    10.0   1_556     S
V28     V31    10.0   1_556     S
V28     V17    10.0   1_466     S
V28     V2    10.0   1_465     S
V28     V18    10.0   1_465     S
V29     V10    10.0   1_554     S
V29     V26    10.0   1_554     S
V29     V24    10.0   1_554     S
V31     V12    10.0   1_554     S
V31     V5    10.0   1_565     S
V31     V28    10.0   1_554     S
V31     V22    10.0   1_564     S
V31     V21    10.0   1_565     S
V32     V6    10.0   1_565     S
V32     V21    10.0   1_565     S
V32     V22    10.0   1_565     S
