data_vmz
_audit_creation_date              2019-12-31
_audit_creation_method            'Pymatgen'
_symmetry_space_group_name_H-M    'P1'
_symmetry_Int_Tables_number       1
loop_
_symmetry_equiv_pos_as_xyz
  x,y,z
_cell_length_a                    36.7794
_cell_length_b                    30.0
_cell_length_c                    38.7728
_cell_angle_alpha                 90.0
_cell_angle_beta                 108.8056
_cell_angle_gamma                 90.0
loop_
_atom_site_label
_atom_site_type_symbol
_atom_site_fract_x
_atom_site_fract_y
_atom_site_fract_z
V1     V     0.1389   0.0424   0.0409
V2     V     0.1389   0.0424   0.5409
V3     V     0.1389   0.3757   0.0409
V4     V     0.1389   0.3757   0.5409
V5     V     0.1389   0.709   0.0409
V6     V     0.1389   0.709   0.5409
V7     V     0.6389   0.0424   0.0409
V8     V     0.6389   0.0424   0.5409
V9     V     0.6389   0.3757   0.0409
V10     V     0.6389   0.3757   0.5409
V11     V     0.6389   0.709   0.0409
V12     V     0.6389   0.709   0.5409
V13     V     0.3611   0.209   0.2091
V14     V     0.3611   0.209   0.7091
V15     V     0.3611   0.5424   0.2091
V16     V     0.3611   0.5424   0.7091
V17     V     0.3611   0.8757   0.2091
V18     V     0.3611   0.8757   0.7091
V19     V     0.8611   0.209   0.2091
V20     V     0.8611   0.209   0.7091
V21     V     0.8611   0.5424   0.2091
V22     V     0.8611   0.5424   0.7091
V23     V     0.8611   0.8757   0.2091
V24     V     0.8611   0.8757   0.7091
V25     V     0.3611   0.291   0.4591
V26     V     0.3611   0.291   0.9591
V27     V     0.3611   0.6243   0.4591
V28     V     0.3611   0.6243   0.9591
V29     V     0.3611   0.9576   0.4591
V30     V     0.3611   0.9576   0.9591
V31     V     0.8611   0.291   0.4591
V32     V     0.8611   0.291   0.9591
V33     V     0.8611   0.6243   0.4591
V34     V     0.8611   0.6243   0.9591
V35     V     0.8611   0.9576   0.4591
V36     V     0.8611   0.9576   0.9591
V37     V     0.1389   0.1243   0.2909
V38     V     0.1389   0.1243   0.7909
V39     V     0.1389   0.4576   0.2909
V40     V     0.1389   0.4576   0.7909
V41     V     0.1389   0.791   0.2909
V42     V     0.1389   0.791   0.7909
V43     V     0.6389   0.1243   0.2909
V44     V     0.6389   0.1243   0.7909
V45     V     0.6389   0.4576   0.2909
V46     V     0.6389   0.4576   0.7909
V47     V     0.6389   0.791   0.2909
V48     V     0.6389   0.791   0.7909
loop_
_geom_bond_atom_site_label_1
_geom_bond_atom_site_label_2
_geom_bond_distance
_geom_bond_site_symmetry_2
_ccdc_geom_bond_type
V1     V17    10.0   1_545     S
V1     V13    10.0   .     S
V1     V3    10.0   .     S
V1     V5    10.0   1_545     S
V1     V30    10.0   1_544     S
V1     V38    10.0   1_554     S
V1     V37    10.0   .     S
V1     V36    10.0   1_444     S
V2     V18    10.0   1_545     S
V2     V14    10.0   .     S
V2     V4    10.0   .     S
V2     V6    10.0   1_545     S
V2     V29    10.0   1_545     S
V2     V37    10.0   .     S
V2     V38    10.0   .     S
V2     V35    10.0   1_445     S
V3     V13    10.0   .     S
V3     V15    10.0   .     S
V3     V5    10.0   .     S
V3     V26    10.0   1_554     S
V3     V40    10.0   1_554     S
V3     V39    10.0   .     S
V3     V32    10.0   1_454     S
V4     V14    10.0   .     S
V4     V16    10.0   .     S
V4     V6    10.0   .     S
V4     V25    10.0   .     S
V4     V39    10.0   .     S
V4     V40    10.0   .     S
V4     V31    10.0   1_455     S
V5     V15    10.0   .     S
V5     V17    10.0   .     S
V5     V1    10.0   1_565     S
V5     V28    10.0   1_554     S
V5     V42    10.0   1_554     S
V5     V41    10.0   .     S
V5     V34    10.0   1_454     S
V6     V16    10.0   .     S
V6     V18    10.0   .     S
V6     V2    10.0   1_565     S
V6     V27    10.0   .     S
V6     V41    10.0   .     S
V6     V42    10.0   .     S
V6     V33    10.0   1_455     S
V7     V23    10.0   1_545     S
V7     V19    10.0   .     S
V7     V9    10.0   .     S
V7     V11    10.0   1_545     S
V7     V36    10.0   1_544     S
V7     V44    10.0   1_554     S
V7     V43    10.0   .     S
V7     V30    10.0   1_544     S
V8     V24    10.0   1_545     S
V8     V20    10.0   .     S
V8     V10    10.0   .     S
V8     V12    10.0   1_545     S
V8     V35    10.0   1_545     S
V8     V43    10.0   .     S
V8     V44    10.0   .     S
V8     V29    10.0   1_545     S
V9     V19    10.0   .     S
V9     V21    10.0   .     S
V9     V11    10.0   .     S
V9     V32    10.0   1_554     S
V9     V46    10.0   1_554     S
V9     V45    10.0   .     S
V9     V26    10.0   1_554     S
V10     V20    10.0   .     S
V10     V22    10.0   .     S
V10     V12    10.0   .     S
V10     V31    10.0   .     S
V10     V45    10.0   .     S
V10     V46    10.0   .     S
V10     V25    10.0   .     S
V11     V21    10.0   .     S
V11     V23    10.0   .     S
V11     V7    10.0   1_565     S
V11     V34    10.0   1_554     S
V11     V48    10.0   1_554     S
V11     V47    10.0   .     S
V11     V28    10.0   1_554     S
V12     V22    10.0   .     S
V12     V24    10.0   .     S
V12     V8    10.0   1_565     S
V12     V33    10.0   .     S
V12     V47    10.0   .     S
V12     V48    10.0   .     S
V12     V27    10.0   .     S
V13     V17    10.0   1_545     S
V13     V15    10.0   .     S
V13     V26    10.0   1_554     S
V13     V37    10.0   .     S
V13     V25    10.0   .     S
V13     V43    10.0   .     S
V14     V18    10.0   1_545     S
V14     V16    10.0   .     S
V14     V25    10.0   .     S
V14     V38    10.0   .     S
V14     V26    10.0   .     S
V14     V44    10.0   .     S
V15     V17    10.0   .     S
V15     V28    10.0   1_554     S
V15     V39    10.0   .     S
V15     V27    10.0   .     S
V15     V45    10.0   .     S
V16     V18    10.0   .     S
V16     V27    10.0   .     S
V16     V40    10.0   .     S
V16     V28    10.0   .     S
V16     V46    10.0   .     S
V17     V1    10.0   1_565     S
V17     V13    10.0   1_565     S
V17     V30    10.0   1_554     S
V17     V41    10.0   .     S
V17     V29    10.0   .     S
V17     V47    10.0   .     S
V18     V2    10.0   1_565     S
V18     V14    10.0   1_565     S
V18     V29    10.0   .     S
V18     V42    10.0   .     S
V18     V30    10.0   .     S
V18     V48    10.0   .     S
V19     V23    10.0   1_545     S
V19     V21    10.0   .     S
V19     V32    10.0   1_554     S
V19     V43    10.0   .     S
V19     V31    10.0   .     S
V19     V37    10.0   1_655     S
V20     V24    10.0   1_545     S
V20     V22    10.0   .     S
V20     V31    10.0   .     S
V20     V44    10.0   .     S
V20     V32    10.0   .     S
V20     V38    10.0   1_655     S
V21     V23    10.0   .     S
V21     V34    10.0   1_554     S
V21     V45    10.0   .     S
V21     V33    10.0   .     S
V21     V39    10.0   1_655     S
V22     V24    10.0   .     S
V22     V33    10.0   .     S
V22     V46    10.0   .     S
V22     V34    10.0   .     S
V22     V40    10.0   1_655     S
V23     V7    10.0   1_565     S
V23     V19    10.0   1_565     S
V23     V36    10.0   1_554     S
V23     V47    10.0   .     S
V23     V35    10.0   .     S
V23     V41    10.0   1_655     S
V24     V8    10.0   1_565     S
V24     V20    10.0   1_565     S
V24     V35    10.0   .     S
V24     V48    10.0   .     S
V24     V36    10.0   .     S
V24     V42    10.0   1_655     S
V25     V37    10.0   .     S
V25     V29    10.0   1_545     S
V25     V27    10.0   .     S
V25     V39    10.0   .     S
V26     V3    10.0   1_556     S
V26     V13    10.0   1_556     S
V26     V38    10.0   .     S
V26     V30    10.0   1_545     S
V26     V28    10.0   .     S
V26     V40    10.0   .     S
V26     V9    10.0   1_556     S
V27     V39    10.0   .     S
V27     V29    10.0   .     S
V27     V41    10.0   .     S
V28     V5    10.0   1_556     S
V28     V15    10.0   1_556     S
V28     V40    10.0   .     S
V28     V30    10.0   .     S
V28     V42    10.0   .     S
V28     V11    10.0   1_556     S
V29     V2    10.0   1_565     S
V29     V41    10.0   .     S
V29     V25    10.0   1_565     S
V29     V37    10.0   1_565     S
V29     V8    10.0   1_565     S
V30     V1    10.0   1_566     S
V30     V17    10.0   1_556     S
V30     V42    10.0   .     S
V30     V26    10.0   1_565     S
V30     V38    10.0   1_565     S
V30     V7    10.0   1_566     S
V31     V43    10.0   .     S
V31     V35    10.0   1_545     S
V31     V33    10.0   .     S
V31     V45    10.0   .     S
V31     V4    10.0   1_655     S
V32     V9    10.0   1_556     S
V32     V19    10.0   1_556     S
V32     V44    10.0   .     S
V32     V36    10.0   1_545     S
V32     V34    10.0   .     S
V32     V46    10.0   .     S
V32     V3    10.0   1_656     S
V33     V45    10.0   .     S
V33     V35    10.0   .     S
V33     V47    10.0   .     S
V33     V6    10.0   1_655     S
V34     V11    10.0   1_556     S
V34     V21    10.0   1_556     S
V34     V46    10.0   .     S
V34     V36    10.0   .     S
V34     V48    10.0   .     S
V34     V5    10.0   1_656     S
V35     V8    10.0   1_565     S
V35     V47    10.0   .     S
V35     V31    10.0   1_565     S
V35     V43    10.0   1_565     S
V35     V2    10.0   1_665     S
V36     V7    10.0   1_566     S
V36     V23    10.0   1_556     S
V36     V48    10.0   .     S
V36     V32    10.0   1_565     S
V36     V44    10.0   1_565     S
V36     V1    10.0   1_666     S
V37     V39    10.0   .     S
V37     V41    10.0   1_545     S
V37     V29    10.0   1_545     S
V37     V19    10.0   1_455     S
V38     V1    10.0   1_556     S
V38     V40    10.0   .     S
V38     V42    10.0   1_545     S
V38     V30    10.0   1_545     S
V38     V20    10.0   1_455     S
V39     V41    10.0   .     S
V39     V21    10.0   1_455     S
V40     V3    10.0   1_556     S
V40     V42    10.0   .     S
V40     V22    10.0   1_455     S
V41     V37    10.0   1_565     S
V41     V23    10.0   1_455     S
V42     V5    10.0   1_556     S
V42     V38    10.0   1_565     S
V42     V24    10.0   1_455     S
V43     V45    10.0   .     S
V43     V47    10.0   1_545     S
V43     V35    10.0   1_545     S
V44     V7    10.0   1_556     S
V44     V46    10.0   .     S
V44     V48    10.0   1_545     S
V44     V36    10.0   1_545     S
V45     V47    10.0   .     S
V46     V9    10.0   1_556     S
V46     V48    10.0   .     S
V47     V43    10.0   1_565     S
V48     V11    10.0   1_556     S
V48     V44    10.0   1_565     S
