data_vnb
_audit_creation_date              2019-12-31
_audit_creation_method            'Pymatgen'
_symmetry_space_group_name_H-M    'P1'
_symmetry_Int_Tables_number       1
loop_
_symmetry_equiv_pos_as_xyz
  x,y,z
_cell_length_a                    30.3242
_cell_length_b                    26.0852
_cell_length_c                    32.8284
_cell_angle_alpha                 90.0
_cell_angle_beta                 99.754
_cell_angle_gamma                 90.0
loop_
_atom_site_label
_atom_site_type_symbol
_atom_site_fract_x
_atom_site_fract_y
_atom_site_fract_z
V1     V     0.0874   0.062   0.1338
V2     V     0.0874   0.562   0.1338
V3     V     0.5874   0.062   0.1338
V4     V     0.5874   0.562   0.1338
V5     V     0.1626   0.312   0.3662
V6     V     0.1626   0.812   0.3662
V7     V     0.6626   0.312   0.3662
V8     V     0.6626   0.812   0.3662
V9     V     0.4126   0.062   0.3662
V10     V     0.4126   0.562   0.3662
V11     V     0.9126   0.062   0.3662
V12     V     0.9126   0.562   0.3662
V13     V     0.3374   0.312   0.1338
V14     V     0.3374   0.812   0.1338
V15     V     0.8374   0.312   0.1338
V16     V     0.8374   0.812   0.1338
V17     V     0.0874   0.438   0.6338
V18     V     0.0874   0.938   0.6338
V19     V     0.5874   0.438   0.6338
V20     V     0.5874   0.938   0.6338
V21     V     0.1626   0.188   0.8662
V22     V     0.1626   0.688   0.8662
V23     V     0.6626   0.188   0.8662
V24     V     0.6626   0.688   0.8662
V25     V     0.3374   0.188   0.6338
V26     V     0.3374   0.688   0.6338
V27     V     0.8374   0.188   0.6338
V28     V     0.8374   0.688   0.6338
V29     V     0.4126   0.438   0.8662
V30     V     0.4126   0.938   0.8662
V31     V     0.9126   0.438   0.8662
V32     V     0.9126   0.938   0.8662
loop_
_geom_bond_atom_site_label_1
_geom_bond_atom_site_label_2
_geom_bond_distance
_geom_bond_site_symmetry_2
_ccdc_geom_bond_type
V1     V11    10.0   1_455     S
V1     V16    10.0   1_445     S
V1     V15    10.0   1_455     S
V1     V5    10.0   .     S
V1     V6    10.0   1_545     S
V1     V13    10.0   .     S
V1     V14    10.0   1_545     S
V1     V21    10.0   1_554     S
V1     V32    10.0   1_444     S
V2     V12    10.0   1_455     S
V2     V15    10.0   1_455     S
V2     V16    10.0   1_455     S
V2     V6    10.0   .     S
V2     V5    10.0   .     S
V2     V14    10.0   .     S
V2     V13    10.0   .     S
V2     V22    10.0   1_554     S
V2     V31    10.0   1_454     S
V3     V9    10.0   .     S
V3     V14    10.0   1_545     S
V3     V13    10.0   .     S
V3     V7    10.0   .     S
V3     V8    10.0   1_545     S
V3     V15    10.0   .     S
V3     V16    10.0   1_545     S
V3     V23    10.0   1_554     S
V3     V30    10.0   1_544     S
V4     V10    10.0   .     S
V4     V13    10.0   .     S
V4     V14    10.0   .     S
V4     V8    10.0   .     S
V4     V7    10.0   .     S
V4     V16    10.0   .     S
V4     V15    10.0   .     S
V4     V24    10.0   1_554     S
V4     V29    10.0   1_554     S
V5     V25    10.0   .     S
V5     V17    10.0   .     S
V5     V11    10.0   1_455     S
V5     V12    10.0   1_455     S
V5     V9    10.0   .     S
V5     V13    10.0   .     S
V5     V10    10.0   .     S
V6     V26    10.0   .     S
V6     V18    10.0   .     S
V6     V12    10.0   1_455     S
V6     V11    10.0   1_465     S
V6     V1    10.0   1_565     S
V6     V10    10.0   .     S
V6     V14    10.0   .     S
V6     V9    10.0   1_565     S
V7     V27    10.0   .     S
V7     V19    10.0   .     S
V7     V9    10.0   .     S
V7     V10    10.0   .     S
V7     V11    10.0   .     S
V7     V15    10.0   .     S
V7     V12    10.0   .     S
V8     V28    10.0   .     S
V8     V20    10.0   .     S
V8     V10    10.0   .     S
V8     V9    10.0   1_565     S
V8     V3    10.0   1_565     S
V8     V12    10.0   .     S
V8     V16    10.0   .     S
V8     V11    10.0   1_565     S
V9     V25    10.0   .     S
V9     V20    10.0   1_545     S
V9     V8    10.0   1_545     S
V9     V13    10.0   .     S
V9     V14    10.0   1_545     S
V9     V6    10.0   1_545     S
V10     V26    10.0   .     S
V10     V19    10.0   .     S
V10     V14    10.0   .     S
V10     V13    10.0   .     S
V11     V27    10.0   .     S
V11     V18    10.0   1_645     S
V11     V5    10.0   1_655     S
V11     V1    10.0   1_655     S
V11     V6    10.0   1_645     S
V11     V15    10.0   .     S
V11     V16    10.0   1_545     S
V11     V8    10.0   1_545     S
V12     V28    10.0   .     S
V12     V17    10.0   1_655     S
V12     V6    10.0   1_655     S
V12     V2    10.0   1_655     S
V12     V5    10.0   1_655     S
V12     V16    10.0   .     S
V12     V15    10.0   .     S
V13     V29    10.0   1_554     S
V13     V21    10.0   1_554     S
V14     V3    10.0   1_565     S
V14     V9    10.0   1_565     S
V14     V1    10.0   1_565     S
V14     V30    10.0   1_554     S
V14     V22    10.0   1_554     S
V15     V2    10.0   1_655     S
V15     V1    10.0   1_655     S
V15     V31    10.0   1_554     S
V15     V23    10.0   1_554     S
V16     V1    10.0   1_665     S
V16     V2    10.0   1_655     S
V16     V11    10.0   1_565     S
V16     V3    10.0   1_565     S
V16     V32    10.0   1_554     S
V16     V24    10.0   1_554     S
V17     V12    10.0   1_455     S
V17     V28    10.0   1_455     S
V17     V31    10.0   1_455     S
V17     V27    10.0   1_455     S
V17     V22    10.0   .     S
V17     V21    10.0   .     S
V17     V25    10.0   .     S
V17     V26    10.0   .     S
V18     V11    10.0   1_465     S
V18     V27    10.0   1_465     S
V18     V32    10.0   1_455     S
V18     V28    10.0   1_455     S
V18     V21    10.0   1_565     S
V18     V22    10.0   .     S
V18     V26    10.0   .     S
V18     V25    10.0   1_565     S
V19     V26    10.0   .     S
V19     V29    10.0   .     S
V19     V25    10.0   .     S
V19     V24    10.0   .     S
V19     V23    10.0   .     S
V19     V27    10.0   .     S
V19     V28    10.0   .     S
V20     V9    10.0   1_565     S
V20     V25    10.0   1_565     S
V20     V30    10.0   .     S
V20     V26    10.0   .     S
V20     V23    10.0   1_565     S
V20     V24    10.0   .     S
V20     V28    10.0   .     S
V20     V27    10.0   1_565     S
V21     V32    10.0   1_445     S
V21     V31    10.0   1_455     S
V21     V18    10.0   1_545     S
V21     V25    10.0   .     S
V21     V29    10.0   .     S
V21     V30    10.0   1_545     S
V21     V13    10.0   1_556     S
V21     V1    10.0   1_556     S
V22     V31    10.0   1_455     S
V22     V32    10.0   1_455     S
V22     V26    10.0   .     S
V22     V30    10.0   .     S
V22     V29    10.0   .     S
V22     V14    10.0   1_556     S
V22     V2    10.0   1_556     S
V23     V30    10.0   1_545     S
V23     V29    10.0   .     S
V23     V20    10.0   1_545     S
V23     V27    10.0   .     S
V23     V31    10.0   .     S
V23     V32    10.0   1_545     S
V23     V15    10.0   1_556     S
V23     V3    10.0   1_556     S
V24     V29    10.0   .     S
V24     V30    10.0   .     S
V24     V28    10.0   .     S
V24     V32    10.0   .     S
V24     V31    10.0   .     S
V24     V16    10.0   1_556     S
V24     V4    10.0   1_556     S
V25     V20    10.0   1_545     S
V25     V29    10.0   .     S
V25     V30    10.0   1_545     S
V25     V18    10.0   1_545     S
V26     V30    10.0   .     S
V26     V29    10.0   .     S
V27     V18    10.0   1_645     S
V27     V17    10.0   1_655     S
V27     V31    10.0   .     S
V27     V32    10.0   1_545     S
V27     V20    10.0   1_545     S
V28     V17    10.0   1_655     S
V28     V18    10.0   1_655     S
V28     V32    10.0   .     S
V28     V31    10.0   .     S
V29     V13    10.0   1_556     S
V29     V4    10.0   1_556     S
V30     V23    10.0   1_565     S
V30     V25    10.0   1_565     S
V30     V21    10.0   1_565     S
V30     V14    10.0   1_556     S
V30     V3    10.0   1_566     S
V31     V17    10.0   1_655     S
V31     V22    10.0   1_655     S
V31     V21    10.0   1_655     S
V31     V15    10.0   1_556     S
V31     V2    10.0   1_656     S
V32     V18    10.0   1_655     S
V32     V21    10.0   1_665     S
V32     V22    10.0   1_655     S
V32     V27    10.0   1_565     S
V32     V23    10.0   1_565     S
V32     V16    10.0   1_556     S
V32     V1    10.0   1_666     S
