data_vnc
_audit_creation_date              2019-12-31
_audit_creation_method            'Pymatgen'
_symmetry_space_group_name_H-M    'P1'
_symmetry_Int_Tables_number       1
loop_
_symmetry_equiv_pos_as_xyz
  x,y,z
_cell_length_a                    32.2509
_cell_length_b                    30.0
_cell_length_c                    39.6388
_cell_angle_alpha                 90.0
_cell_angle_beta                 92.405
_cell_angle_gamma                 90.0
loop_
_atom_site_label
_atom_site_type_symbol
_atom_site_fract_x
_atom_site_fract_y
_atom_site_fract_z
V1     V     0.866   0.189   0.4341
V2     V     0.866   0.189   0.9341
V3     V     0.866   0.5224   0.4341
V4     V     0.866   0.5224   0.9341
V5     V     0.866   0.8557   0.4341
V6     V     0.866   0.8557   0.9341
V7     V     0.134   0.189   0.3159
V8     V     0.134   0.189   0.8159
V9     V     0.134   0.5224   0.3159
V10     V     0.134   0.5224   0.8159
V11     V     0.134   0.8557   0.3159
V12     V     0.134   0.8557   0.8159
V13     V     0.134   0.1443   0.0659
V14     V     0.134   0.1443   0.5659
V15     V     0.134   0.4776   0.0659
V16     V     0.134   0.4776   0.5659
V17     V     0.134   0.811   0.0659
V18     V     0.134   0.811   0.5659
V19     V     0.866   0.1443   0.1841
V20     V     0.866   0.1443   0.6841
V21     V     0.866   0.4776   0.1841
V22     V     0.866   0.4776   0.6841
V23     V     0.866   0.811   0.1841
V24     V     0.866   0.811   0.6841
V25     V     0.366   0.311   0.1841
V26     V     0.366   0.311   0.6841
V27     V     0.366   0.6443   0.1841
V28     V     0.366   0.6443   0.6841
V29     V     0.366   0.9776   0.1841
V30     V     0.366   0.9776   0.6841
V31     V     0.634   0.311   0.0659
V32     V     0.634   0.311   0.5659
V33     V     0.634   0.6443   0.0659
V34     V     0.634   0.6443   0.5659
V35     V     0.634   0.9776   0.0659
V36     V     0.634   0.9776   0.5659
V37     V     0.366   0.0224   0.4341
V38     V     0.366   0.0224   0.9341
V39     V     0.366   0.3557   0.4341
V40     V     0.366   0.3557   0.9341
V41     V     0.366   0.689   0.4341
V42     V     0.366   0.689   0.9341
V43     V     0.634   0.0224   0.3159
V44     V     0.634   0.0224   0.8159
V45     V     0.634   0.3557   0.3159
V46     V     0.634   0.3557   0.8159
V47     V     0.634   0.689   0.3159
V48     V     0.634   0.689   0.8159
loop_
_geom_bond_atom_site_label_1
_geom_bond_atom_site_label_2
_geom_bond_distance
_geom_bond_site_symmetry_2
_ccdc_geom_bond_type
V1     V45    10.0   .     S
V1     V43    10.0   .     S
V1     V7    10.0   1_655     S
V1     V19    10.0   .     S
V1     V14    10.0   1_655     S
V1     V20    10.0   .     S
V1     V5    10.0   1_545     S
V1     V3    10.0   .     S
V1     V32    10.0   .     S
V2     V46    10.0   .     S
V2     V44    10.0   .     S
V2     V8    10.0   1_655     S
V2     V20    10.0   .     S
V2     V13    10.0   1_656     S
V2     V19    10.0   1_556     S
V2     V6    10.0   1_545     S
V2     V4    10.0   .     S
V2     V31    10.0   1_556     S
V3     V47    10.0   .     S
V3     V45    10.0   .     S
V3     V9    10.0   1_655     S
V3     V21    10.0   .     S
V3     V16    10.0   1_655     S
V3     V22    10.0   .     S
V3     V5    10.0   .     S
V3     V34    10.0   .     S
V4     V48    10.0   .     S
V4     V46    10.0   .     S
V4     V10    10.0   1_655     S
V4     V22    10.0   .     S
V4     V15    10.0   1_656     S
V4     V21    10.0   1_556     S
V4     V6    10.0   .     S
V4     V33    10.0   1_556     S
V5     V43    10.0   1_565     S
V5     V47    10.0   .     S
V5     V11    10.0   1_655     S
V5     V23    10.0   .     S
V5     V18    10.0   1_655     S
V5     V24    10.0   .     S
V5     V1    10.0   1_565     S
V5     V36    10.0   .     S
V6     V44    10.0   1_565     S
V6     V48    10.0   .     S
V6     V12    10.0   1_655     S
V6     V24    10.0   .     S
V6     V17    10.0   1_656     S
V6     V23    10.0   1_556     S
V6     V2    10.0   1_565     S
V6     V35    10.0   1_556     S
V7     V39    10.0   .     S
V7     V37    10.0   .     S
V7     V1    10.0   1_455     S
V7     V13    10.0   .     S
V7     V19    10.0   1_455     S
V7     V14    10.0   .     S
V7     V11    10.0   1_545     S
V7     V9    10.0   .     S
V7     V25    10.0   .     S
V8     V40    10.0   .     S
V8     V38    10.0   .     S
V8     V2    10.0   1_455     S
V8     V14    10.0   .     S
V8     V20    10.0   1_455     S
V8     V13    10.0   1_556     S
V8     V12    10.0   1_545     S
V8     V10    10.0   .     S
V8     V26    10.0   .     S
V9     V41    10.0   .     S
V9     V39    10.0   .     S
V9     V3    10.0   1_455     S
V9     V15    10.0   .     S
V9     V21    10.0   1_455     S
V9     V16    10.0   .     S
V9     V11    10.0   .     S
V9     V27    10.0   .     S
V10     V42    10.0   .     S
V10     V40    10.0   .     S
V10     V4    10.0   1_455     S
V10     V16    10.0   .     S
V10     V22    10.0   1_455     S
V10     V15    10.0   1_556     S
V10     V12    10.0   .     S
V10     V28    10.0   .     S
V11     V37    10.0   1_565     S
V11     V41    10.0   .     S
V11     V5    10.0   1_455     S
V11     V17    10.0   .     S
V11     V23    10.0   1_455     S
V11     V18    10.0   .     S
V11     V7    10.0   1_565     S
V11     V29    10.0   .     S
V12     V38    10.0   1_565     S
V12     V42    10.0   .     S
V12     V6    10.0   1_455     S
V12     V18    10.0   .     S
V12     V24    10.0   1_455     S
V12     V17    10.0   1_556     S
V12     V8    10.0   1_565     S
V12     V30    10.0   .     S
V13     V29    10.0   1_545     S
V13     V25    10.0   .     S
V13     V8    10.0   1_554     S
V13     V2    10.0   1_454     S
V13     V19    10.0   1_455     S
V13     V15    10.0   .     S
V13     V17    10.0   1_545     S
V13     V38    10.0   1_554     S
V14     V30    10.0   1_545     S
V14     V26    10.0   .     S
V14     V1    10.0   1_455     S
V14     V20    10.0   1_455     S
V14     V16    10.0   .     S
V14     V18    10.0   1_545     S
V14     V37    10.0   .     S
V15     V25    10.0   .     S
V15     V27    10.0   .     S
V15     V10    10.0   1_554     S
V15     V4    10.0   1_454     S
V15     V21    10.0   1_455     S
V15     V17    10.0   .     S
V15     V40    10.0   1_554     S
V16     V26    10.0   .     S
V16     V28    10.0   .     S
V16     V3    10.0   1_455     S
V16     V22    10.0   1_455     S
V16     V18    10.0   .     S
V16     V39    10.0   .     S
V17     V27    10.0   .     S
V17     V29    10.0   .     S
V17     V12    10.0   1_554     S
V17     V6    10.0   1_454     S
V17     V23    10.0   1_455     S
V17     V13    10.0   1_565     S
V17     V42    10.0   1_554     S
V18     V28    10.0   .     S
V18     V30    10.0   .     S
V18     V5    10.0   1_455     S
V18     V24    10.0   1_455     S
V18     V14    10.0   1_565     S
V18     V41    10.0   .     S
V19     V7    10.0   1_655     S
V19     V2    10.0   1_554     S
V19     V13    10.0   1_655     S
V19     V21    10.0   .     S
V19     V23    10.0   1_545     S
V19     V43    10.0   .     S
V19     V35    10.0   1_545     S
V19     V31    10.0   .     S
V20     V8    10.0   1_655     S
V20     V14    10.0   1_655     S
V20     V22    10.0   .     S
V20     V24    10.0   1_545     S
V20     V44    10.0   .     S
V20     V36    10.0   1_545     S
V20     V32    10.0   .     S
V21     V9    10.0   1_655     S
V21     V4    10.0   1_554     S
V21     V15    10.0   1_655     S
V21     V23    10.0   .     S
V21     V45    10.0   .     S
V21     V31    10.0   .     S
V21     V33    10.0   .     S
V22     V10    10.0   1_655     S
V22     V16    10.0   1_655     S
V22     V24    10.0   .     S
V22     V46    10.0   .     S
V22     V32    10.0   .     S
V22     V34    10.0   .     S
V23     V11    10.0   1_655     S
V23     V6    10.0   1_554     S
V23     V17    10.0   1_655     S
V23     V19    10.0   1_565     S
V23     V47    10.0   .     S
V23     V33    10.0   .     S
V23     V35    10.0   .     S
V24     V12    10.0   1_655     S
V24     V18    10.0   1_655     S
V24     V20    10.0   1_565     S
V24     V48    10.0   .     S
V24     V34    10.0   .     S
V24     V36    10.0   .     S
V25     V31    10.0   .     S
V25     V40    10.0   1_554     S
V25     V39    10.0   .     S
V25     V45    10.0   .     S
V25     V29    10.0   1_545     S
V25     V27    10.0   .     S
V26     V32    10.0   .     S
V26     V39    10.0   .     S
V26     V40    10.0   .     S
V26     V46    10.0   .     S
V26     V30    10.0   1_545     S
V26     V28    10.0   .     S
V27     V33    10.0   .     S
V27     V42    10.0   1_554     S
V27     V41    10.0   .     S
V27     V47    10.0   .     S
V27     V29    10.0   .     S
V28     V34    10.0   .     S
V28     V41    10.0   .     S
V28     V42    10.0   .     S
V28     V48    10.0   .     S
V28     V30    10.0   .     S
V29     V13    10.0   1_565     S
V29     V35    10.0   .     S
V29     V38    10.0   1_564     S
V29     V37    10.0   1_565     S
V29     V43    10.0   1_565     S
V29     V25    10.0   1_565     S
V30     V14    10.0   1_565     S
V30     V36    10.0   .     S
V30     V37    10.0   1_565     S
V30     V38    10.0   1_565     S
V30     V44    10.0   1_565     S
V30     V26    10.0   1_565     S
V31     V40    10.0   1_554     S
V31     V46    10.0   1_554     S
V31     V45    10.0   .     S
V31     V35    10.0   1_545     S
V31     V33    10.0   .     S
V31     V2    10.0   1_554     S
V32     V39    10.0   .     S
V32     V45    10.0   .     S
V32     V46    10.0   .     S
V32     V36    10.0   1_545     S
V32     V34    10.0   .     S
V33     V42    10.0   1_554     S
V33     V48    10.0   1_554     S
V33     V47    10.0   .     S
V33     V35    10.0   .     S
V33     V4    10.0   1_554     S
V34     V41    10.0   .     S
V34     V47    10.0   .     S
V34     V48    10.0   .     S
V34     V36    10.0   .     S
V35     V38    10.0   1_564     S
V35     V44    10.0   1_564     S
V35     V43    10.0   1_565     S
V35     V31    10.0   1_565     S
V35     V19    10.0   1_565     S
V35     V6    10.0   1_554     S
V36     V37    10.0   1_565     S
V36     V43    10.0   1_565     S
V36     V44    10.0   1_565     S
V36     V32    10.0   1_565     S
V36     V20    10.0   1_565     S
V37     V11    10.0   1_545     S
V37     V30    10.0   1_545     S
V37     V36    10.0   1_545     S
V37     V43    10.0   .     S
V37     V29    10.0   1_545     S
V37     V39    10.0   .     S
V37     V41    10.0   1_545     S
V38     V12    10.0   1_545     S
V38     V29    10.0   1_546     S
V38     V35    10.0   1_546     S
V38     V44    10.0   .     S
V38     V30    10.0   1_545     S
V38     V40    10.0   .     S
V38     V42    10.0   1_545     S
V38     V13    10.0   1_556     S
V39     V45    10.0   .     S
V39     V41    10.0   .     S
V40     V25    10.0   1_556     S
V40     V31    10.0   1_556     S
V40     V46    10.0   .     S
V40     V42    10.0   .     S
V40     V15    10.0   1_556     S
V41     V47    10.0   .     S
V41     V37    10.0   1_565     S
V42     V27    10.0   1_556     S
V42     V33    10.0   1_556     S
V42     V48    10.0   .     S
V42     V38    10.0   1_565     S
V42     V17    10.0   1_556     S
V43     V5    10.0   1_545     S
V43     V36    10.0   1_545     S
V43     V29    10.0   1_545     S
V43     V35    10.0   1_545     S
V43     V45    10.0   .     S
V43     V47    10.0   1_545     S
V44     V6    10.0   1_545     S
V44     V35    10.0   1_546     S
V44     V30    10.0   1_545     S
V44     V36    10.0   1_545     S
V44     V46    10.0   .     S
V44     V48    10.0   1_545     S
V45     V47    10.0   .     S
V46     V31    10.0   1_556     S
V46     V48    10.0   .     S
V47     V43    10.0   1_565     S
V48     V33    10.0   1_556     S
V48     V44    10.0   1_565     S
