data_vne
_audit_creation_date              2019-12-31
_audit_creation_method            'Pymatgen'
_symmetry_space_group_name_H-M    'P1'
_symmetry_Int_Tables_number       1
loop_
_symmetry_equiv_pos_as_xyz
  x,y,z
_cell_length_a                    30.0
_cell_length_b                    38.5868
_cell_length_c                    34.2074
_cell_angle_alpha                 90.0
_cell_angle_beta                 106.8447
_cell_angle_gamma                 90.0
loop_
_atom_site_label
_atom_site_type_symbol
_atom_site_fract_x
_atom_site_fract_y
_atom_site_fract_z
V1     V     0.2126   0.3078   0.1367
V2     V     0.2126   0.3078   0.6367
V3     V     0.2126   0.8078   0.1367
V4     V     0.2126   0.8078   0.6367
V5     V     0.5459   0.3078   0.1367
V6     V     0.5459   0.3078   0.6367
V7     V     0.5459   0.8078   0.1367
V8     V     0.5459   0.8078   0.6367
V9     V     0.8792   0.3078   0.1367
V10     V     0.8792   0.3078   0.6367
V11     V     0.8792   0.8078   0.1367
V12     V     0.8792   0.8078   0.6367
V13     V     0.1208   0.1922   0.3633
V14     V     0.1208   0.1922   0.8633
V15     V     0.1208   0.6922   0.3633
V16     V     0.1208   0.6922   0.8633
V17     V     0.4541   0.1922   0.3633
V18     V     0.4541   0.1922   0.8633
V19     V     0.4541   0.6922   0.3633
V20     V     0.4541   0.6922   0.8633
V21     V     0.7874   0.1922   0.3633
V22     V     0.7874   0.1922   0.8633
V23     V     0.7874   0.6922   0.3633
V24     V     0.7874   0.6922   0.8633
V25     V     0.1208   0.0578   0.1133
V26     V     0.1208   0.0578   0.6133
V27     V     0.1208   0.5578   0.1133
V28     V     0.1208   0.5578   0.6133
V29     V     0.4541   0.0578   0.1133
V30     V     0.4541   0.0578   0.6133
V31     V     0.4541   0.5578   0.1133
V32     V     0.4541   0.5578   0.6133
V33     V     0.7874   0.0578   0.1133
V34     V     0.7874   0.0578   0.6133
V35     V     0.7874   0.5578   0.1133
V36     V     0.7874   0.5578   0.6133
V37     V     0.2126   0.4422   0.3867
V38     V     0.2126   0.4422   0.8867
V39     V     0.2126   0.9422   0.3867
V40     V     0.2126   0.9422   0.8867
V41     V     0.5459   0.4422   0.3867
V42     V     0.5459   0.4422   0.8867
V43     V     0.5459   0.9422   0.3867
V44     V     0.5459   0.9422   0.8867
V45     V     0.8792   0.4422   0.3867
V46     V     0.8792   0.4422   0.8867
V47     V     0.8792   0.9422   0.3867
V48     V     0.8792   0.9422   0.8867
loop_
_geom_bond_atom_site_label_1
_geom_bond_atom_site_label_2
_geom_bond_distance
_geom_bond_site_symmetry_2
_ccdc_geom_bond_type
V1     V38    10.0   1_554     S
V1     V27    10.0   .     S
V1     V37    10.0   .     S
V1     V14    10.0   1_554     S
V1     V13    10.0   .     S
V1     V17    10.0   .     S
V1     V9    10.0   1_455     S
V1     V5    10.0   .     S
V1     V25    10.0   .     S
V2     V37    10.0   .     S
V2     V28    10.0   .     S
V2     V38    10.0   .     S
V2     V13    10.0   .     S
V2     V14    10.0   .     S
V2     V18    10.0   .     S
V2     V10    10.0   1_455     S
V2     V6    10.0   .     S
V2     V26    10.0   .     S
V3     V40    10.0   1_554     S
V3     V25    10.0   1_565     S
V3     V39    10.0   .     S
V3     V16    10.0   1_554     S
V3     V15    10.0   .     S
V3     V19    10.0   .     S
V3     V11    10.0   1_455     S
V3     V7    10.0   .     S
V3     V27    10.0   .     S
V4     V39    10.0   .     S
V4     V26    10.0   1_565     S
V4     V40    10.0   .     S
V4     V15    10.0   .     S
V4     V16    10.0   .     S
V4     V20    10.0   .     S
V4     V12    10.0   1_455     S
V4     V8    10.0   .     S
V4     V28    10.0   .     S
V5     V42    10.0   1_554     S
V5     V31    10.0   .     S
V5     V41    10.0   .     S
V5     V18    10.0   1_554     S
V5     V17    10.0   .     S
V5     V21    10.0   .     S
V5     V9    10.0   .     S
V5     V29    10.0   .     S
V6     V41    10.0   .     S
V6     V32    10.0   .     S
V6     V42    10.0   .     S
V6     V17    10.0   .     S
V6     V18    10.0   .     S
V6     V22    10.0   .     S
V6     V10    10.0   .     S
V6     V30    10.0   .     S
V7     V44    10.0   1_554     S
V7     V29    10.0   1_565     S
V7     V43    10.0   .     S
V7     V20    10.0   1_554     S
V7     V19    10.0   .     S
V7     V23    10.0   .     S
V7     V11    10.0   .     S
V7     V31    10.0   .     S
V8     V43    10.0   .     S
V8     V30    10.0   1_565     S
V8     V44    10.0   .     S
V8     V19    10.0   .     S
V8     V20    10.0   .     S
V8     V24    10.0   .     S
V8     V12    10.0   .     S
V8     V32    10.0   .     S
V9     V46    10.0   1_554     S
V9     V35    10.0   .     S
V9     V45    10.0   .     S
V9     V22    10.0   1_554     S
V9     V21    10.0   .     S
V9     V13    10.0   1_655     S
V9     V1    10.0   1_655     S
V9     V33    10.0   .     S
V10     V45    10.0   .     S
V10     V36    10.0   .     S
V10     V46    10.0   .     S
V10     V21    10.0   .     S
V10     V22    10.0   .     S
V10     V14    10.0   1_655     S
V10     V2    10.0   1_655     S
V10     V34    10.0   .     S
V11     V48    10.0   1_554     S
V11     V33    10.0   1_565     S
V11     V47    10.0   .     S
V11     V24    10.0   1_554     S
V11     V23    10.0   .     S
V11     V15    10.0   1_655     S
V11     V3    10.0   1_655     S
V11     V35    10.0   .     S
V12     V47    10.0   .     S
V12     V34    10.0   1_565     S
V12     V48    10.0   .     S
V12     V23    10.0   .     S
V12     V24    10.0   .     S
V12     V16    10.0   1_655     S
V12     V4    10.0   1_655     S
V12     V36    10.0   .     S
V13     V37    10.0   .     S
V13     V9    10.0   1_455     S
V13     V17    10.0   .     S
V13     V21    10.0   1_455     S
V13     V39    10.0   1_545     S
V13     V25    10.0   .     S
V13     V26    10.0   .     S
V14     V38    10.0   .     S
V14     V1    10.0   1_556     S
V14     V10    10.0   1_455     S
V14     V18    10.0   .     S
V14     V22    10.0   1_455     S
V14     V40    10.0   1_545     S
V14     V26    10.0   .     S
V14     V25    10.0   1_556     S
V15     V39    10.0   .     S
V15     V11    10.0   1_455     S
V15     V19    10.0   .     S
V15     V23    10.0   1_455     S
V15     V37    10.0   .     S
V15     V27    10.0   .     S
V15     V28    10.0   .     S
V16     V40    10.0   .     S
V16     V3    10.0   1_556     S
V16     V12    10.0   1_455     S
V16     V20    10.0   .     S
V16     V24    10.0   1_455     S
V16     V38    10.0   .     S
V16     V28    10.0   .     S
V16     V27    10.0   1_556     S
V17     V41    10.0   .     S
V17     V21    10.0   .     S
V17     V43    10.0   1_545     S
V17     V29    10.0   .     S
V17     V30    10.0   .     S
V18     V42    10.0   .     S
V18     V5    10.0   1_556     S
V18     V22    10.0   .     S
V18     V44    10.0   1_545     S
V18     V30    10.0   .     S
V18     V29    10.0   1_556     S
V19     V43    10.0   .     S
V19     V23    10.0   .     S
V19     V41    10.0   .     S
V19     V31    10.0   .     S
V19     V32    10.0   .     S
V20     V44    10.0   .     S
V20     V7    10.0   1_556     S
V20     V24    10.0   .     S
V20     V42    10.0   .     S
V20     V32    10.0   .     S
V20     V31    10.0   1_556     S
V21     V45    10.0   .     S
V21     V13    10.0   1_655     S
V21     V47    10.0   1_545     S
V21     V33    10.0   .     S
V21     V34    10.0   .     S
V22     V46    10.0   .     S
V22     V9    10.0   1_556     S
V22     V14    10.0   1_655     S
V22     V48    10.0   1_545     S
V22     V34    10.0   .     S
V22     V33    10.0   1_556     S
V23     V47    10.0   .     S
V23     V15    10.0   1_655     S
V23     V45    10.0   .     S
V23     V35    10.0   .     S
V23     V36    10.0   .     S
V24     V48    10.0   .     S
V24     V11    10.0   1_556     S
V24     V16    10.0   1_655     S
V24     V46    10.0   .     S
V24     V36    10.0   .     S
V24     V35    10.0   1_556     S
V25     V3    10.0   1_545     S
V25     V14    10.0   1_554     S
V25     V39    10.0   1_545     S
V25     V40    10.0   1_544     S
V25     V48    10.0   1_444     S
V25     V29    10.0   .     S
V25     V33    10.0   1_455     S
V26     V4    10.0   1_545     S
V26     V40    10.0   1_545     S
V26     V39    10.0   1_545     S
V26     V47    10.0   1_445     S
V26     V30    10.0   .     S
V26     V34    10.0   1_455     S
V27     V16    10.0   1_554     S
V27     V37    10.0   .     S
V27     V38    10.0   1_554     S
V27     V46    10.0   1_454     S
V27     V31    10.0   .     S
V27     V35    10.0   1_455     S
V28     V38    10.0   .     S
V28     V37    10.0   .     S
V28     V45    10.0   1_455     S
V28     V32    10.0   .     S
V28     V36    10.0   1_455     S
V29     V7    10.0   1_545     S
V29     V18    10.0   1_554     S
V29     V43    10.0   1_545     S
V29     V44    10.0   1_544     S
V29     V40    10.0   1_544     S
V29     V33    10.0   .     S
V30     V8    10.0   1_545     S
V30     V44    10.0   1_545     S
V30     V43    10.0   1_545     S
V30     V39    10.0   1_545     S
V30     V34    10.0   .     S
V31     V20    10.0   1_554     S
V31     V41    10.0   .     S
V31     V42    10.0   1_554     S
V31     V38    10.0   1_554     S
V31     V35    10.0   .     S
V32     V42    10.0   .     S
V32     V41    10.0   .     S
V32     V37    10.0   .     S
V32     V36    10.0   .     S
V33     V11    10.0   1_545     S
V33     V22    10.0   1_554     S
V33     V47    10.0   1_545     S
V33     V48    10.0   1_544     S
V33     V44    10.0   1_544     S
V33     V25    10.0   1_655     S
V34     V12    10.0   1_545     S
V34     V48    10.0   1_545     S
V34     V47    10.0   1_545     S
V34     V43    10.0   1_545     S
V34     V26    10.0   1_655     S
V35     V24    10.0   1_554     S
V35     V45    10.0   .     S
V35     V46    10.0   1_554     S
V35     V42    10.0   1_554     S
V35     V27    10.0   1_655     S
V36     V46    10.0   .     S
V36     V45    10.0   .     S
V36     V41    10.0   .     S
V36     V28    10.0   1_655     S
V37     V45    10.0   1_455     S
V37     V41    10.0   .     S
V38     V1    10.0   1_556     S
V38     V27    10.0   1_556     S
V38     V31    10.0   1_556     S
V38     V46    10.0   1_455     S
V38     V42    10.0   .     S
V39     V13    10.0   1_565     S
V39     V25    10.0   1_565     S
V39     V26    10.0   1_565     S
V39     V30    10.0   1_565     S
V39     V47    10.0   1_455     S
V39     V43    10.0   .     S
V40     V3    10.0   1_556     S
V40     V14    10.0   1_565     S
V40     V26    10.0   1_565     S
V40     V25    10.0   1_566     S
V40     V29    10.0   1_566     S
V40     V48    10.0   1_455     S
V40     V44    10.0   .     S
V41     V45    10.0   .     S
V42     V5    10.0   1_556     S
V42     V31    10.0   1_556     S
V42     V35    10.0   1_556     S
V42     V46    10.0   .     S
V43     V17    10.0   1_565     S
V43     V29    10.0   1_565     S
V43     V30    10.0   1_565     S
V43     V34    10.0   1_565     S
V43     V47    10.0   .     S
V44     V7    10.0   1_556     S
V44     V18    10.0   1_565     S
V44     V30    10.0   1_565     S
V44     V29    10.0   1_566     S
V44     V33    10.0   1_566     S
V44     V48    10.0   .     S
V45     V28    10.0   1_655     S
V45     V37    10.0   1_655     S
V46     V9    10.0   1_556     S
V46     V35    10.0   1_556     S
V46     V27    10.0   1_656     S
V46     V38    10.0   1_655     S
V47     V21    10.0   1_565     S
V47     V33    10.0   1_565     S
V47     V34    10.0   1_565     S
V47     V26    10.0   1_665     S
V47     V39    10.0   1_655     S
V48     V11    10.0   1_556     S
V48     V22    10.0   1_565     S
V48     V34    10.0   1_565     S
V48     V33    10.0   1_566     S
V48     V25    10.0   1_666     S
V48     V40    10.0   1_655     S
