data_vnf
_audit_creation_date              2019-12-31
_audit_creation_method            'Pymatgen'
_symmetry_space_group_name_H-M    'P1'
_symmetry_Int_Tables_number       1
loop_
_symmetry_equiv_pos_as_xyz
  x,y,z
_cell_length_a                    33.4668
_cell_length_b                    30.0
_cell_length_c                    39.5326
_cell_angle_alpha                 90.0
_cell_angle_beta                 104.7176
_cell_angle_gamma                 90.0
loop_
_atom_site_label
_atom_site_type_symbol
_atom_site_fract_x
_atom_site_fract_y
_atom_site_fract_z
V1     V     0.1162   0.0579   0.3458
V2     V     0.1162   0.0579   0.8458
V3     V     0.1162   0.3913   0.3458
V4     V     0.1162   0.3913   0.8458
V5     V     0.1162   0.7246   0.3458
V6     V     0.1162   0.7246   0.8458
V7     V     0.6162   0.0579   0.3458
V8     V     0.6162   0.0579   0.8458
V9     V     0.6162   0.3913   0.3458
V10     V     0.6162   0.3913   0.8458
V11     V     0.6162   0.7246   0.3458
V12     V     0.6162   0.7246   0.8458
V13     V     0.3838   0.2246   0.4042
V14     V     0.3838   0.2246   0.9042
V15     V     0.3838   0.5579   0.4042
V16     V     0.3838   0.5579   0.9042
V17     V     0.3838   0.8913   0.4042
V18     V     0.3838   0.8913   0.9042
V19     V     0.8838   0.2246   0.4042
V20     V     0.8838   0.2246   0.9042
V21     V     0.8838   0.5579   0.4042
V22     V     0.8838   0.5579   0.9042
V23     V     0.8838   0.8913   0.4042
V24     V     0.8838   0.8913   0.9042
V25     V     0.1162   0.1087   0.0958
V26     V     0.1162   0.1087   0.5958
V27     V     0.1162   0.4421   0.0958
V28     V     0.1162   0.4421   0.5958
V29     V     0.1162   0.7754   0.0958
V30     V     0.1162   0.7754   0.5958
V31     V     0.6162   0.1087   0.0958
V32     V     0.6162   0.1087   0.5958
V33     V     0.6162   0.4421   0.0958
V34     V     0.6162   0.4421   0.5958
V35     V     0.6162   0.7754   0.0958
V36     V     0.6162   0.7754   0.5958
V37     V     0.3838   0.2754   0.1542
V38     V     0.3838   0.2754   0.6542
V39     V     0.3838   0.6087   0.1542
V40     V     0.3838   0.6087   0.6542
V41     V     0.3838   0.9421   0.1542
V42     V     0.3838   0.9421   0.6542
V43     V     0.8838   0.2754   0.1542
V44     V     0.8838   0.2754   0.6542
V45     V     0.8838   0.6087   0.1542
V46     V     0.8838   0.6087   0.6542
V47     V     0.8838   0.9421   0.1542
V48     V     0.8838   0.9421   0.6542
loop_
_geom_bond_atom_site_label_1
_geom_bond_atom_site_label_2
_geom_bond_distance
_geom_bond_site_symmetry_2
_ccdc_geom_bond_type
V1     V26    10.0   .     S
V1     V23    10.0   1_445     S
V1     V19    10.0   1_455     S
V1     V3    10.0   .     S
V1     V5    10.0   1_545     S
V1     V25    10.0   .     S
V1     V47    10.0   1_445     S
V1     V17    10.0   1_545     S
V1     V13    10.0   .     S
V2     V25    10.0   1_556     S
V2     V24    10.0   1_445     S
V2     V20    10.0   1_455     S
V2     V4    10.0   .     S
V2     V6    10.0   1_545     S
V2     V26    10.0   .     S
V2     V48    10.0   1_445     S
V2     V18    10.0   1_545     S
V2     V14    10.0   .     S
V3     V28    10.0   .     S
V3     V19    10.0   1_455     S
V3     V21    10.0   1_455     S
V3     V5    10.0   .     S
V3     V27    10.0   .     S
V3     V43    10.0   1_455     S
V3     V13    10.0   .     S
V3     V15    10.0   .     S
V4     V27    10.0   1_556     S
V4     V20    10.0   1_455     S
V4     V22    10.0   1_455     S
V4     V6    10.0   .     S
V4     V28    10.0   .     S
V4     V44    10.0   1_455     S
V4     V14    10.0   .     S
V4     V16    10.0   .     S
V5     V30    10.0   .     S
V5     V21    10.0   1_455     S
V5     V23    10.0   1_455     S
V5     V1    10.0   1_565     S
V5     V29    10.0   .     S
V5     V45    10.0   1_455     S
V5     V15    10.0   .     S
V5     V17    10.0   .     S
V6     V29    10.0   1_556     S
V6     V22    10.0   1_455     S
V6     V24    10.0   1_455     S
V6     V2    10.0   1_565     S
V6     V30    10.0   .     S
V6     V46    10.0   1_455     S
V6     V16    10.0   .     S
V6     V18    10.0   .     S
V7     V32    10.0   .     S
V7     V17    10.0   1_545     S
V7     V13    10.0   .     S
V7     V9    10.0   .     S
V7     V11    10.0   1_545     S
V7     V31    10.0   .     S
V7     V41    10.0   1_545     S
V7     V23    10.0   1_545     S
V7     V19    10.0   .     S
V8     V31    10.0   1_556     S
V8     V18    10.0   1_545     S
V8     V14    10.0   .     S
V8     V10    10.0   .     S
V8     V12    10.0   1_545     S
V8     V32    10.0   .     S
V8     V42    10.0   1_545     S
V8     V24    10.0   1_545     S
V8     V20    10.0   .     S
V9     V34    10.0   .     S
V9     V13    10.0   .     S
V9     V15    10.0   .     S
V9     V11    10.0   .     S
V9     V33    10.0   .     S
V9     V37    10.0   .     S
V9     V19    10.0   .     S
V9     V21    10.0   .     S
V10     V33    10.0   1_556     S
V10     V14    10.0   .     S
V10     V16    10.0   .     S
V10     V12    10.0   .     S
V10     V34    10.0   .     S
V10     V38    10.0   .     S
V10     V20    10.0   .     S
V10     V22    10.0   .     S
V11     V36    10.0   .     S
V11     V15    10.0   .     S
V11     V17    10.0   .     S
V11     V7    10.0   1_565     S
V11     V35    10.0   .     S
V11     V39    10.0   .     S
V11     V21    10.0   .     S
V11     V23    10.0   .     S
V12     V35    10.0   1_556     S
V12     V16    10.0   .     S
V12     V18    10.0   .     S
V12     V8    10.0   1_565     S
V12     V36    10.0   .     S
V12     V40    10.0   .     S
V12     V22    10.0   .     S
V12     V24    10.0   .     S
V13     V38    10.0   .     S
V13     V32    10.0   .     S
V13     V17    10.0   1_545     S
V13     V15    10.0   .     S
V13     V37    10.0   .     S
V14     V37    10.0   1_556     S
V14     V31    10.0   1_556     S
V14     V18    10.0   1_545     S
V14     V16    10.0   .     S
V14     V38    10.0   .     S
V15     V40    10.0   .     S
V15     V34    10.0   .     S
V15     V17    10.0   .     S
V15     V39    10.0   .     S
V16     V39    10.0   1_556     S
V16     V33    10.0   1_556     S
V16     V18    10.0   .     S
V16     V40    10.0   .     S
V17     V42    10.0   .     S
V17     V36    10.0   .     S
V17     V7    10.0   1_565     S
V17     V13    10.0   1_565     S
V17     V41    10.0   .     S
V17     V1    10.0   1_565     S
V18     V41    10.0   1_556     S
V18     V35    10.0   1_556     S
V18     V8    10.0   1_565     S
V18     V14    10.0   1_565     S
V18     V42    10.0   .     S
V18     V2    10.0   1_565     S
V19     V44    10.0   .     S
V19     V26    10.0   1_655     S
V19     V3    10.0   1_655     S
V19     V1    10.0   1_655     S
V19     V23    10.0   1_545     S
V19     V21    10.0   .     S
V19     V43    10.0   .     S
V20     V43    10.0   1_556     S
V20     V25    10.0   1_656     S
V20     V4    10.0   1_655     S
V20     V2    10.0   1_655     S
V20     V24    10.0   1_545     S
V20     V22    10.0   .     S
V20     V44    10.0   .     S
V21     V46    10.0   .     S
V21     V28    10.0   1_655     S
V21     V5    10.0   1_655     S
V21     V3    10.0   1_655     S
V21     V23    10.0   .     S
V21     V45    10.0   .     S
V22     V45    10.0   1_556     S
V22     V27    10.0   1_656     S
V22     V6    10.0   1_655     S
V22     V4    10.0   1_655     S
V22     V24    10.0   .     S
V22     V46    10.0   .     S
V23     V48    10.0   .     S
V23     V30    10.0   1_655     S
V23     V1    10.0   1_665     S
V23     V5    10.0   1_655     S
V23     V19    10.0   1_565     S
V23     V47    10.0   .     S
V23     V7    10.0   1_565     S
V24     V47    10.0   1_556     S
V24     V29    10.0   1_656     S
V24     V2    10.0   1_665     S
V24     V6    10.0   1_655     S
V24     V20    10.0   1_565     S
V24     V48    10.0   .     S
V24     V8    10.0   1_565     S
V25     V41    10.0   1_545     S
V25     V37    10.0   .     S
V25     V20    10.0   1_454     S
V25     V2    10.0   1_554     S
V25     V47    10.0   1_445     S
V25     V43    10.0   1_455     S
V25     V27    10.0   .     S
V25     V29    10.0   1_545     S
V26     V42    10.0   1_545     S
V26     V38    10.0   .     S
V26     V19    10.0   1_455     S
V26     V48    10.0   1_445     S
V26     V44    10.0   1_455     S
V26     V28    10.0   .     S
V26     V30    10.0   1_545     S
V27     V37    10.0   .     S
V27     V39    10.0   .     S
V27     V22    10.0   1_454     S
V27     V4    10.0   1_554     S
V27     V43    10.0   1_455     S
V27     V45    10.0   1_455     S
V27     V29    10.0   .     S
V28     V38    10.0   .     S
V28     V40    10.0   .     S
V28     V21    10.0   1_455     S
V28     V44    10.0   1_455     S
V28     V46    10.0   1_455     S
V28     V30    10.0   .     S
V29     V39    10.0   .     S
V29     V41    10.0   .     S
V29     V24    10.0   1_454     S
V29     V6    10.0   1_554     S
V29     V45    10.0   1_455     S
V29     V47    10.0   1_455     S
V29     V25    10.0   1_565     S
V30     V40    10.0   .     S
V30     V42    10.0   .     S
V30     V23    10.0   1_455     S
V30     V46    10.0   1_455     S
V30     V48    10.0   1_455     S
V30     V26    10.0   1_565     S
V31     V47    10.0   1_545     S
V31     V43    10.0   .     S
V31     V14    10.0   1_554     S
V31     V8    10.0   1_554     S
V31     V41    10.0   1_545     S
V31     V37    10.0   .     S
V31     V33    10.0   .     S
V31     V35    10.0   1_545     S
V32     V48    10.0   1_545     S
V32     V44    10.0   .     S
V32     V42    10.0   1_545     S
V32     V38    10.0   .     S
V32     V34    10.0   .     S
V32     V36    10.0   1_545     S
V33     V43    10.0   .     S
V33     V45    10.0   .     S
V33     V16    10.0   1_554     S
V33     V10    10.0   1_554     S
V33     V37    10.0   .     S
V33     V39    10.0   .     S
V33     V35    10.0   .     S
V34     V44    10.0   .     S
V34     V46    10.0   .     S
V34     V38    10.0   .     S
V34     V40    10.0   .     S
V34     V36    10.0   .     S
V35     V45    10.0   .     S
V35     V47    10.0   .     S
V35     V18    10.0   1_554     S
V35     V12    10.0   1_554     S
V35     V39    10.0   .     S
V35     V41    10.0   .     S
V35     V31    10.0   1_565     S
V36     V46    10.0   .     S
V36     V48    10.0   .     S
V36     V40    10.0   .     S
V36     V42    10.0   .     S
V36     V32    10.0   1_565     S
V37     V14    10.0   1_554     S
V37     V41    10.0   1_545     S
V37     V39    10.0   .     S
V38     V42    10.0   1_545     S
V38     V40    10.0   .     S
V39     V16    10.0   1_554     S
V39     V41    10.0   .     S
V40     V42    10.0   .     S
V41     V25    10.0   1_565     S
V41     V18    10.0   1_554     S
V41     V31    10.0   1_565     S
V41     V37    10.0   1_565     S
V41     V7    10.0   1_565     S
V42     V26    10.0   1_565     S
V42     V32    10.0   1_565     S
V42     V38    10.0   1_565     S
V42     V8    10.0   1_565     S
V43     V20    10.0   1_554     S
V43     V27    10.0   1_655     S
V43     V25    10.0   1_655     S
V43     V47    10.0   1_545     S
V43     V45    10.0   .     S
V43     V3    10.0   1_655     S
V44     V28    10.0   1_655     S
V44     V26    10.0   1_655     S
V44     V48    10.0   1_545     S
V44     V46    10.0   .     S
V44     V4    10.0   1_655     S
V45     V22    10.0   1_554     S
V45     V29    10.0   1_655     S
V45     V27    10.0   1_655     S
V45     V47    10.0   .     S
V45     V5    10.0   1_655     S
V46     V30    10.0   1_655     S
V46     V28    10.0   1_655     S
V46     V48    10.0   .     S
V46     V6    10.0   1_655     S
V47     V31    10.0   1_565     S
V47     V24    10.0   1_554     S
V47     V25    10.0   1_665     S
V47     V29    10.0   1_655     S
V47     V43    10.0   1_565     S
V47     V1    10.0   1_665     S
V48     V32    10.0   1_565     S
V48     V26    10.0   1_665     S
V48     V30    10.0   1_655     S
V48     V44    10.0   1_565     S
V48     V2    10.0   1_665     S
