data_vng
_audit_creation_date              2019-12-31
_audit_creation_method            'Pymatgen'
_symmetry_space_group_name_H-M    'P1'
_symmetry_Int_Tables_number       1
loop_
_symmetry_equiv_pos_as_xyz
  x,y,z
_cell_length_a                    35.617
_cell_length_b                    29.1796
_cell_length_c                    38.058
_cell_angle_alpha                 90.0
_cell_angle_beta                 106.4474
_cell_angle_gamma                 90.0
loop_
_atom_site_label
_atom_site_type_symbol
_atom_site_fract_x
_atom_site_fract_y
_atom_site_fract_z
V1     V     0.2055   0.6718   0.363
V2     V     0.2055   0.6718   0.863
V3     V     0.7055   0.6718   0.363
V4     V     0.7055   0.6718   0.863
V5     V     0.2945   0.6718   0.137
V6     V     0.2945   0.6718   0.637
V7     V     0.7945   0.6718   0.137
V8     V     0.7945   0.6718   0.637
V9     V     0.4555   0.8282   0.363
V10     V     0.4555   0.8282   0.863
V11     V     0.9555   0.8282   0.363
V12     V     0.9555   0.8282   0.863
V13     V     0.0445   0.8282   0.137
V14     V     0.0445   0.8282   0.637
V15     V     0.5445   0.8282   0.137
V16     V     0.5445   0.8282   0.637
V17     V     0.2055   0.3282   0.363
V18     V     0.2055   0.3282   0.863
V19     V     0.7055   0.3282   0.363
V20     V     0.7055   0.3282   0.863
V21     V     0.2945   0.3282   0.137
V22     V     0.2945   0.3282   0.637
V23     V     0.7945   0.3282   0.137
V24     V     0.7945   0.3282   0.637
V25     V     0.4555   0.1718   0.363
V26     V     0.4555   0.1718   0.863
V27     V     0.9555   0.1718   0.363
V28     V     0.9555   0.1718   0.863
V29     V     0.0445   0.1718   0.137
V30     V     0.0445   0.1718   0.637
V31     V     0.5445   0.1718   0.137
V32     V     0.5445   0.1718   0.637
loop_
_geom_bond_atom_site_label_1
_geom_bond_atom_site_label_2
_geom_bond_distance
_geom_bond_site_symmetry_2
_ccdc_geom_bond_type
V1     V5    9.969   .     S
V1     V13    9.988   .     S
V1     V9    10.006   .     S
V1     V11    10.006   1_455     S
V1     V6    10.006   .     S
V1     V17    10.024   .     S
V2     V6    9.969   .     S
V2     V14    9.988   .     S
V2     V10    10.006   .     S
V2     V12    10.006   1_455     S
V2     V5    10.006   1_556     S
V2     V18    10.024   .     S
V3     V7    9.969   .     S
V3     V15    9.988   .     S
V3     V11    10.006   .     S
V3     V9    10.006   .     S
V3     V8    10.006   .     S
V3     V19    10.024   .     S
V4     V8    9.969   .     S
V4     V16    9.988   .     S
V4     V12    10.006   .     S
V4     V10    10.006   .     S
V4     V7    10.006   1_556     S
V4     V20    10.024   .     S
V5     V9    9.988   .     S
V5     V15    10.006   .     S
V5     V13    10.006   .     S
V5     V2    10.006   1_554     S
V5     V21    10.024   .     S
V6     V10    9.988   .     S
V6     V16    10.006   .     S
V6     V14    10.006   .     S
V6     V22    10.024   .     S
V7     V11    9.988   .     S
V7     V13    10.006   1_655     S
V7     V15    10.006   .     S
V7     V4    10.006   1_554     S
V7     V23    10.024   .     S
V8     V12    9.988   .     S
V8     V14    10.006   1_655     S
V8     V16    10.006   .     S
V8     V24    10.024   .     S
V9     V15    9.969   .     S
V9     V16    10.006   .     S
V9     V25    10.024   1_565     S
V10     V16    9.969   .     S
V10     V15    10.006   1_556     S
V10     V26    10.024   1_565     S
V11     V13    9.969   1_655     S
V11     V1    10.006   1_655     S
V11     V14    10.006   1_655     S
V11     V27    10.024   1_565     S
V12     V14    9.969   1_655     S
V12     V2    10.006   1_655     S
V12     V13    10.006   1_656     S
V12     V28    10.024   1_565     S
V13     V11    9.969   1_455     S
V13     V7    10.006   1_455     S
V13     V12    10.006   1_454     S
V13     V29    10.024   1_565     S
V14     V12    9.969   1_455     S
V14     V8    10.006   1_455     S
V14     V11    10.006   1_455     S
V14     V30    10.024   1_565     S
V15     V10    10.006   1_554     S
V15     V31    10.024   1_565     S
V16     V32    10.024   1_565     S
V17     V21    9.969   .     S
V17     V29    9.988   .     S
V17     V25    10.006   .     S
V17     V27    10.006   1_455     S
V17     V22    10.006   .     S
V18     V22    9.969   .     S
V18     V30    9.988   .     S
V18     V26    10.006   .     S
V18     V28    10.006   1_455     S
V18     V21    10.006   1_556     S
V19     V23    9.969   .     S
V19     V31    9.988   .     S
V19     V27    10.006   .     S
V19     V25    10.006   .     S
V19     V24    10.006   .     S
V20     V24    9.969   .     S
V20     V32    9.988   .     S
V20     V28    10.006   .     S
V20     V26    10.006   .     S
V20     V23    10.006   1_556     S
V21     V25    9.988   .     S
V21     V31    10.006   .     S
V21     V29    10.006   .     S
V21     V18    10.006   1_554     S
V22     V26    9.988   .     S
V22     V32    10.006   .     S
V22     V30    10.006   .     S
V23     V27    9.988   .     S
V23     V29    10.006   1_655     S
V23     V31    10.006   .     S
V23     V20    10.006   1_554     S
V24     V28    9.988   .     S
V24     V30    10.006   1_655     S
V24     V32    10.006   .     S
V25     V31    9.969   .     S
V25     V32    10.006   .     S
V25     V9    10.024   1_545     S
V26     V32    9.969   .     S
V26     V31    10.006   1_556     S
V26     V10    10.024   1_545     S
V27     V29    9.969   1_655     S
V27     V17    10.006   1_655     S
V27     V30    10.006   1_655     S
V27     V11    10.024   1_545     S
V28     V30    9.969   1_655     S
V28     V18    10.006   1_655     S
V28     V29    10.006   1_656     S
V28     V12    10.024   1_545     S
V29     V27    9.969   1_455     S
V29     V23    10.006   1_455     S
V29     V28    10.006   1_454     S
V29     V13    10.024   1_545     S
V30     V28    9.969   1_455     S
V30     V24    10.006   1_455     S
V30     V27    10.006   1_455     S
V30     V14    10.024   1_545     S
V31     V26    10.006   1_554     S
V31     V15    10.024   1_545     S
V32     V16    10.024   1_545     S
