data_vnh
_audit_creation_date              2019-12-31
_audit_creation_method            'Pymatgen'
_symmetry_space_group_name_H-M    'P1'
_symmetry_Int_Tables_number       1
loop_
_symmetry_equiv_pos_as_xyz
  x,y,z
_cell_length_a                    27.0022
_cell_length_b                    33.407
_cell_length_c                    38.4194
_cell_angle_alpha                 90.0
_cell_angle_beta                 99.777
_cell_angle_gamma                 90.0
loop_
_atom_site_label
_atom_site_type_symbol
_atom_site_fract_x
_atom_site_fract_y
_atom_site_fract_z
V1     V     0.1609   0.46   0.077
V2     V     0.1609   0.46   0.577
V3     V     0.1609   0.96   0.077
V4     V     0.1609   0.96   0.577
V5     V     0.1609   0.04   0.327
V6     V     0.1609   0.04   0.827
V7     V     0.1609   0.54   0.327
V8     V     0.1609   0.54   0.827
V9     V     0.8391   0.04   0.423
V10     V     0.8391   0.04   0.923
V11     V     0.8391   0.54   0.423
V12     V     0.8391   0.54   0.923
V13     V     0.8391   0.46   0.173
V14     V     0.8391   0.46   0.673
V15     V     0.8391   0.96   0.173
V16     V     0.8391   0.96   0.673
V17     V     0.3391   0.29   0.423
V18     V     0.3391   0.29   0.923
V19     V     0.3391   0.79   0.423
V20     V     0.3391   0.79   0.923
V21     V     0.3391   0.21   0.173
V22     V     0.3391   0.21   0.673
V23     V     0.3391   0.71   0.173
V24     V     0.3391   0.71   0.673
V25     V     0.6609   0.21   0.077
V26     V     0.6609   0.21   0.577
V27     V     0.6609   0.71   0.077
V28     V     0.6609   0.71   0.577
V29     V     0.6609   0.29   0.327
V30     V     0.6609   0.29   0.827
V31     V     0.6609   0.79   0.327
V32     V     0.6609   0.79   0.827
loop_
_geom_bond_atom_site_label_1
_geom_bond_atom_site_label_2
_geom_bond_distance
_geom_bond_site_symmetry_2
_ccdc_geom_bond_type
V1     V18    10.008   1_554     S
V1     V21    10.024   .     S
V1     V12    10.009   1_454     S
V1     V23    10.024   .     S
V1     V8    9.969   1_554     S
V1     V7    9.969   .     S
V1     V13    9.996   1_455     S
V2     V17    10.008   .     S
V2     V22    10.024   .     S
V2     V11    10.009   1_455     S
V2     V24    10.024   .     S
V2     V7    9.969   .     S
V2     V8    9.969   .     S
V2     V14    9.996   1_455     S
V3     V20    10.008   1_554     S
V3     V23    10.024   .     S
V3     V10    10.009   1_464     S
V3     V21    10.024   1_565     S
V3     V6    9.969   1_564     S
V3     V5    9.969   1_565     S
V3     V15    9.996   1_455     S
V4     V19    10.008   .     S
V4     V24    10.024   .     S
V4     V9    10.009   1_465     S
V4     V22    10.024   1_565     S
V4     V5    9.969   1_565     S
V4     V6    9.969   1_565     S
V4     V16    9.996   1_455     S
V5     V19    10.024   1_545     S
V5     V15    10.009   1_445     S
V5     V21    10.008   .     S
V5     V17    10.024   .     S
V5     V4    9.969   1_545     S
V5     V3    9.969   1_545     S
V5     V9    9.996   1_455     S
V6     V20    10.024   1_545     S
V6     V16    10.009   1_445     S
V6     V22    10.008   .     S
V6     V18    10.024   .     S
V6     V3    9.969   1_546     S
V6     V4    9.969   1_545     S
V6     V10    9.996   1_455     S
V7     V17    10.024   .     S
V7     V13    10.009   1_455     S
V7     V23    10.008   .     S
V7     V19    10.024   .     S
V7     V11    9.996   1_455     S
V8     V18    10.024   .     S
V8     V14    10.009   1_455     S
V8     V24    10.008   .     S
V8     V20    10.024   .     S
V8     V1    9.969   1_556     S
V8     V12    9.996   1_455     S
V9     V29    10.024   .     S
V9     V26    10.008   .     S
V9     V4    10.009   1_645     S
V9     V31    10.024   1_545     S
V9     V15    9.969   1_545     S
V9     V16    9.969   1_545     S
V9     V5    9.996   1_655     S
V10     V30    10.024   .     S
V10     V25    10.008   1_556     S
V10     V3    10.009   1_646     S
V10     V32    10.024   1_545     S
V10     V16    9.969   1_545     S
V10     V15    9.969   1_546     S
V10     V6    9.996   1_655     S
V11     V31    10.024   .     S
V11     V28    10.008   .     S
V11     V2    10.009   1_655     S
V11     V29    10.024   .     S
V11     V13    9.969   .     S
V11     V14    9.969   .     S
V11     V7    9.996   1_655     S
V12     V32    10.024   .     S
V12     V27    10.008   1_556     S
V12     V1    10.009   1_656     S
V12     V30    10.024   .     S
V12     V14    9.969   .     S
V12     V13    9.969   1_556     S
V12     V8    9.996   1_655     S
V13     V27    10.024   .     S
V13     V7    10.009   1_655     S
V13     V25    10.024   .     S
V13     V29    10.008   .     S
V13     V12    9.969   1_554     S
V13     V1    9.996   1_655     S
V14     V28    10.024   .     S
V14     V8    10.009   1_655     S
V14     V26    10.024   .     S
V14     V30    10.008   .     S
V14     V2    9.996   1_655     S
V15     V25    10.024   1_565     S
V15     V5    10.009   1_665     S
V15     V27    10.024   .     S
V15     V31    10.008   .     S
V15     V9    9.969   1_565     S
V15     V10    9.969   1_564     S
V15     V3    9.996   1_655     S
V16     V26    10.024   1_565     S
V16     V6    10.009   1_665     S
V16     V28    10.024   .     S
V16     V32    10.008   .     S
V16     V10    9.969   1_565     S
V16     V9    9.969   1_565     S
V16     V4    9.996   1_655     S
V17     V26    10.009   .     S
V17     V21    9.969   .     S
V17     V22    9.969   .     S
V17     V29    9.996   .     S
V18     V1    10.008   1_556     S
V18     V25    10.009   1_556     S
V18     V22    9.969   .     S
V18     V21    9.969   1_556     S
V18     V30    9.996   .     S
V19     V5    10.024   1_565     S
V19     V28    10.009   .     S
V19     V23    9.969   .     S
V19     V24    9.969   .     S
V19     V31    9.996   .     S
V20     V6    10.024   1_565     S
V20     V3    10.008   1_556     S
V20     V27    10.009   1_556     S
V20     V24    9.969   .     S
V20     V23    9.969   1_556     S
V20     V32    9.996   .     S
V21     V3    10.024   1_545     S
V21     V29    10.009   .     S
V21     V18    9.969   1_554     S
V21     V25    9.996   .     S
V22     V4    10.024   1_545     S
V22     V30    10.009   .     S
V22     V26    9.996   .     S
V23     V31    10.009   .     S
V23     V20    9.969   1_554     S
V23     V27    9.996   .     S
V24     V32    10.009   .     S
V24     V28    9.996   .     S
V25     V10    10.008   1_554     S
V25     V15    10.024   1_545     S
V25     V18    10.009   1_554     S
V25     V30    9.969   1_554     S
V25     V29    9.969   .     S
V26     V16    10.024   1_545     S
V26     V29    9.969   .     S
V26     V30    9.969   .     S
V27     V12    10.008   1_554     S
V27     V20    10.009   1_554     S
V27     V32    9.969   1_554     S
V27     V31    9.969   .     S
V28     V31    9.969   .     S
V28     V32    9.969   .     S
V30     V25    9.969   1_556     S
V31     V9    10.024   1_565     S
V32     V10    10.024   1_565     S
V32     V27    9.969   1_556     S
