data_vni
_audit_creation_date              2019-12-31
_audit_creation_method            'Pymatgen'
_symmetry_space_group_name_H-M    'P1'
_symmetry_Int_Tables_number       1
loop_
_symmetry_equiv_pos_as_xyz
  x,y,z
_cell_length_a                    26.9388
_cell_length_b                    29.9661
_cell_length_c                    26.8975
_cell_angle_alpha                 90.0
_cell_angle_beta                 94.0729
_cell_angle_gamma                 90.0
loop_
_atom_site_label
_atom_site_type_symbol
_atom_site_fract_x
_atom_site_fract_y
_atom_site_fract_z
V1     V     0.6343   0.1251   0.6304
V2     V     0.6343   0.4584   0.6304
V3     V     0.6343   0.7918   0.6304
V4     V     0.8657   0.2918   0.8696
V5     V     0.8657   0.6251   0.8696
V6     V     0.8657   0.9584   0.8696
V7     V     0.1343   0.2918   0.6304
V8     V     0.1343   0.6251   0.6304
V9     V     0.1343   0.9584   0.6304
V10     V     0.3657   0.1251   0.8696
V11     V     0.3657   0.4584   0.8696
V12     V     0.3657   0.7918   0.8696
V13     V     0.6343   0.2082   0.1304
V14     V     0.6343   0.5416   0.1304
V15     V     0.6343   0.8749   0.1304
V16     V     0.8657   0.0416   0.3696
V17     V     0.8657   0.3749   0.3696
V18     V     0.8657   0.7082   0.3696
V19     V     0.1343   0.0416   0.1304
V20     V     0.1343   0.3749   0.1304
V21     V     0.1343   0.7082   0.1304
V22     V     0.3657   0.2082   0.3696
V23     V     0.3657   0.5416   0.3696
V24     V     0.3657   0.8749   0.3696
loop_
_geom_bond_atom_site_label_1
_geom_bond_atom_site_label_2
_geom_bond_distance
_geom_bond_site_symmetry_2
_ccdc_geom_bond_type
V1     V10    10.018   .     S
V1     V16    10.028   .     S
V1     V22    10.029   .     S
V1     V4    9.974   .     S
V1     V2    9.989   .     S
V1     V3    9.989   1_545     S
V1     V6    9.974   1_545     S
V2     V11    10.018   .     S
V2     V17    10.028   .     S
V2     V23    10.029   .     S
V2     V5    9.974   .     S
V2     V3    9.989   .     S
V2     V4    9.974   .     S
V3     V12    10.018   .     S
V3     V18    10.028   .     S
V3     V24    10.029   .     S
V3     V6    9.974   .     S
V3     V1    9.989   1_565     S
V3     V5    9.974   .     S
V4     V7    10.018   1_655     S
V4     V13    10.028   1_556     S
V4     V20    10.029   1_656     S
V4     V6    9.989   1_545     S
V4     V5    9.989   .     S
V5     V8    10.018   1_655     S
V5     V14    10.028   1_556     S
V5     V21    10.029   1_656     S
V5     V6    9.989   .     S
V6     V9    10.018   1_655     S
V6     V15    10.028   1_556     S
V6     V19    10.029   1_666     S
V6     V1    9.974   1_565     S
V6     V4    9.989   1_565     S
V7     V4    10.018   1_455     S
V7     V22    10.028   .     S
V7     V17    10.029   1_455     S
V7     V11    9.974   .     S
V7     V9    9.989   1_545     S
V7     V8    9.989   .     S
V7     V10    9.974   .     S
V8     V5    10.018   1_455     S
V8     V23    10.028   .     S
V8     V18    10.029   1_455     S
V8     V12    9.974   .     S
V8     V9    9.989   .     S
V8     V11    9.974   .     S
V9     V6    10.018   1_455     S
V9     V24    10.028   .     S
V9     V16    10.029   1_465     S
V9     V10    9.974   1_565     S
V9     V7    9.989   1_565     S
V9     V12    9.974   .     S
V10     V19    10.028   1_556     S
V10     V13    10.029   1_556     S
V10     V9    9.974   1_545     S
V10     V11    9.989   .     S
V10     V12    9.989   1_545     S
V11     V20    10.028   1_556     S
V11     V14    10.029   1_556     S
V11     V12    9.989   .     S
V12     V21    10.028   1_556     S
V12     V15    10.029   1_556     S
V12     V10    9.989   1_565     S
V13     V22    10.018   .     S
V13     V4    10.028   1_554     S
V13     V10    10.029   1_554     S
V13     V17    9.974   .     S
V13     V15    9.989   1_545     S
V13     V14    9.989   .     S
V13     V16    9.974   .     S
V14     V23    10.018   .     S
V14     V5    10.028   1_554     S
V14     V11    10.029   1_554     S
V14     V18    9.974   .     S
V14     V15    9.989   .     S
V14     V17    9.974   .     S
V15     V24    10.018   .     S
V15     V6    10.028   1_554     S
V15     V12    10.029   1_554     S
V15     V16    9.974   1_565     S
V15     V13    9.989   1_565     S
V15     V18    9.974   .     S
V16     V19    10.018   1_655     S
V16     V9    10.029   1_645     S
V16     V15    9.974   1_545     S
V16     V17    9.989   .     S
V16     V18    9.989   1_545     S
V17     V20    10.018   1_655     S
V17     V7    10.029   1_655     S
V17     V18    9.989   .     S
V18     V21    10.018   1_655     S
V18     V8    10.029   1_655     S
V18     V16    9.989   1_565     S
V19     V16    10.018   1_455     S
V19     V10    10.028   1_554     S
V19     V6    10.029   1_444     S
V19     V24    9.974   1_545     S
V19     V20    9.989   .     S
V19     V21    9.989   1_545     S
V19     V22    9.974   .     S
V20     V17    10.018   1_455     S
V20     V11    10.028   1_554     S
V20     V4    10.029   1_454     S
V20     V22    9.974   .     S
V20     V21    9.989   .     S
V20     V23    9.974   .     S
V21     V18    10.018   1_455     S
V21     V12    10.028   1_554     S
V21     V5    10.029   1_454     S
V21     V23    9.974   .     S
V21     V19    9.989   1_565     S
V21     V24    9.974   .     S
V22     V24    9.989   1_545     S
V22     V23    9.989   .     S
V23     V24    9.989   .     S
V24     V19    9.974   1_565     S
V24     V22    9.989   1_565     S
