data_wfa
_audit_creation_date              2019-12-31
_audit_creation_method            'Pymatgen'
_symmetry_space_group_name_H-M    'P1'
_symmetry_Int_Tables_number       1
loop_
_symmetry_equiv_pos_as_xyz
  x,y,z
_cell_length_a                    33.4645
_cell_length_b                    33.4645
_cell_length_c                    29.5644
_cell_angle_alpha                 90.0
_cell_angle_beta                 90.0
_cell_angle_gamma                 90.0
loop_
_atom_site_label
_atom_site_type_symbol
_atom_site_fract_x
_atom_site_fract_y
_atom_site_fract_z
V1     V     0.3506   0.5016   0.2459
V2     V     0.3506   0.5016   0.7459
V3     V     0.1494   0.5016   0.4959
V4     V     0.1494   0.5016   0.9959
V5     V     0.6494   0.4984   0.2541
V6     V     0.6494   0.4984   0.7541
V7     V     0.8506   0.4984   0.0041
V8     V     0.8506   0.4984   0.5041
V9     V     0.9984   0.3506   0.2459
V10     V     0.9984   0.3506   0.7459
V11     V     0.9984   0.1494   0.4959
V12     V     0.9984   0.1494   0.9959
V13     V     0.0016   0.6494   0.2541
V14     V     0.0016   0.6494   0.7541
V15     V     0.0016   0.8506   0.0041
V16     V     0.0016   0.8506   0.5041
V17     V     0.3506   0.9984   0.4959
V18     V     0.3506   0.9984   0.9959
V19     V     0.1494   0.9984   0.2459
V20     V     0.1494   0.9984   0.7459
V21     V     0.6494   0.0016   0.0041
V22     V     0.6494   0.0016   0.5041
V23     V     0.8506   0.0016   0.2541
V24     V     0.8506   0.0016   0.7541
V25     V     0.5016   0.3506   0.4959
V26     V     0.5016   0.3506   0.9959
V27     V     0.5016   0.1494   0.2459
V28     V     0.5016   0.1494   0.7459
V29     V     0.4984   0.6494   0.0041
V30     V     0.4984   0.6494   0.5041
V31     V     0.4984   0.8506   0.2541
V32     V     0.4984   0.8506   0.7541
loop_
_geom_bond_atom_site_label_1
_geom_bond_atom_site_label_2
_geom_bond_distance
_geom_bond_site_symmetry_2
_ccdc_geom_bond_type
V1     V3    10.0   .     S
V1     V4    10.0   1_554     S
V1     V5    10.0   .     S
V1     V29    10.0   .     S
V2     V4    10.0   .     S
V2     V3    10.0   .     S
V2     V6    10.0   .     S
V2     V30    10.0   .     S
V3     V8    10.0   1_455     S
V3     V13    10.0   .     S
V4     V1    10.0   1_556     S
V4     V7    10.0   1_456     S
V4     V14    10.0   .     S
V5     V7    10.0   .     S
V5     V8    10.0   .     S
V5     V25    10.0   .     S
V6     V8    10.0   .     S
V6     V7    10.0   1_556     S
V6     V26    10.0   .     S
V7     V6    10.0   1_554     S
V7     V4    10.0   1_654     S
V7     V9    10.0   .     S
V8     V3    10.0   1_655     S
V8     V10    10.0   .     S
V9     V11    10.0   .     S
V9     V12    10.0   1_554     S
V9     V13    10.0   1_655     S
V10     V12    10.0   .     S
V10     V11    10.0   .     S
V10     V14    10.0   1_655     S
V11     V16    10.0   1_645     S
V11     V23    10.0   .     S
V12     V9    10.0   1_556     S
V12     V15    10.0   1_646     S
V12     V24    10.0   .     S
V13     V15    10.0   .     S
V13     V16    10.0   .     S
V13     V9    10.0   1_455     S
V14     V16    10.0   .     S
V14     V15    10.0   1_556     S
V14     V10    10.0   1_455     S
V15     V14    10.0   1_554     S
V15     V12    10.0   1_464     S
V15     V19    10.0   .     S
V16     V11    10.0   1_465     S
V16     V20    10.0   .     S
V17     V19    10.0   .     S
V17     V20    10.0   .     S
V17     V22    10.0   1_565     S
V17     V31    10.0   .     S
V18     V20    10.0   .     S
V18     V19    10.0   1_556     S
V18     V21    10.0   1_566     S
V18     V32    10.0   .     S
V19     V18    10.0   1_554     S
V19     V23    10.0   1_465     S
V20     V24    10.0   1_465     S
V21     V24    10.0   1_554     S
V21     V23    10.0   .     S
V21     V18    10.0   1_544     S
V21     V27    10.0   .     S
V22     V23    10.0   .     S
V22     V24    10.0   .     S
V22     V17    10.0   1_545     S
V22     V28    10.0   .     S
V23     V19    10.0   1_645     S
V24     V21    10.0   1_556     S
V24     V20    10.0   1_645     S
V25     V27    10.0   .     S
V25     V28    10.0   .     S
V25     V30    10.0   .     S
V26     V28    10.0   .     S
V26     V27    10.0   1_556     S
V26     V29    10.0   1_556     S
V27     V26    10.0   1_554     S
V27     V31    10.0   1_545     S
V28     V32    10.0   1_545     S
V29     V32    10.0   1_554     S
V29     V31    10.0   .     S
V29     V26    10.0   1_554     S
V30     V31    10.0   .     S
V30     V32    10.0   .     S
V31     V27    10.0   1_565     S
V32     V29    10.0   1_556     S
V32     V28    10.0   1_565     S
