data_wfb
_audit_creation_date              2019-12-31
_audit_creation_method            'Pymatgen'
_symmetry_space_group_name_H-M    'P1'
_symmetry_Int_Tables_number       1
loop_
_symmetry_equiv_pos_as_xyz
  x,y,z
_cell_length_a                    25.3543
_cell_length_b                    25.3543
_cell_length_c                    29.9997
_cell_angle_alpha                 90.0
_cell_angle_beta                 90.0
_cell_angle_gamma                 90.0
loop_
_atom_site_label
_atom_site_type_symbol
_atom_site_fract_x
_atom_site_fract_y
_atom_site_fract_z
V1     V     0.6836   0.0178   0.2256
V2     V     0.6836   0.0178   0.5589
V3     V     0.6836   0.0178   0.8923
V4     V     0.3164   0.9822   0.1077
V5     V     0.3164   0.9822   0.4411
V6     V     0.3164   0.9822   0.7744
V7     V     0.9822   0.1836   0.0589
V8     V     0.9822   0.1836   0.3923
V9     V     0.9822   0.1836   0.7256
V10     V     0.0178   0.8164   0.2744
V11     V     0.0178   0.8164   0.6077
V12     V     0.0178   0.8164   0.9411
V13     V     0.5178   0.3164   0.0589
V14     V     0.5178   0.3164   0.3923
V15     V     0.5178   0.3164   0.7256
V16     V     0.4822   0.6836   0.2744
V17     V     0.4822   0.6836   0.6077
V18     V     0.4822   0.6836   0.9411
V19     V     0.1836   0.5178   0.1077
V20     V     0.1836   0.5178   0.4411
V21     V     0.1836   0.5178   0.7744
V22     V     0.8164   0.4822   0.2256
V23     V     0.8164   0.4822   0.5589
V24     V     0.8164   0.4822   0.8923
loop_
_geom_bond_atom_site_label_1
_geom_bond_atom_site_label_2
_geom_bond_distance
_geom_bond_site_symmetry_2
_ccdc_geom_bond_type
V1     V13    10.0   .     S
V1     V4    10.0   1_545     S
V1     V14    10.0   .     S
V1     V3    10.0   1_554     S
V1     V2    10.0   .     S
V1     V8    10.0   .     S
V1     V7    10.0   .     S
V1     V10    10.0   1_645     S
V1     V16    10.0   1_545     S
V2     V14    10.0   .     S
V2     V5    10.0   1_545     S
V2     V15    10.0   .     S
V2     V3    10.0   .     S
V2     V9    10.0   .     S
V2     V8    10.0   .     S
V2     V11    10.0   1_645     S
V2     V17    10.0   1_545     S
V3     V15    10.0   .     S
V3     V6    10.0   1_545     S
V3     V13    10.0   1_556     S
V3     V1    10.0   1_556     S
V3     V7    10.0   1_556     S
V3     V9    10.0   .     S
V3     V12    10.0   1_645     S
V3     V18    10.0   1_545     S
V4     V1    10.0   1_565     S
V4     V16    10.0   .     S
V4     V5    10.0   .     S
V4     V6    10.0   1_554     S
V4     V18    10.0   1_554     S
V4     V12    10.0   1_554     S
V4     V10    10.0   .     S
V4     V13    10.0   1_565     S
V4     V7    10.0   1_465     S
V5     V2    10.0   1_565     S
V5     V17    10.0   .     S
V5     V6    10.0   .     S
V5     V16    10.0   .     S
V5     V10    10.0   .     S
V5     V11    10.0   .     S
V5     V14    10.0   1_565     S
V5     V8    10.0   1_465     S
V6     V3    10.0   1_565     S
V6     V18    10.0   .     S
V6     V4    10.0   1_556     S
V6     V17    10.0   .     S
V6     V11    10.0   .     S
V6     V12    10.0   .     S
V6     V15    10.0   1_565     S
V6     V9    10.0   1_465     S
V7     V12    10.0   1_644     S
V7     V3    10.0   1_554     S
V7     V8    10.0   .     S
V7     V9    10.0   1_554     S
V7     V22    10.0   .     S
V7     V24    10.0   1_554     S
V7     V4    10.0   1_645     S
V7     V19    10.0   1_655     S
V8     V10    10.0   1_645     S
V8     V9    10.0   .     S
V8     V23    10.0   .     S
V8     V22    10.0   .     S
V8     V5    10.0   1_645     S
V8     V20    10.0   1_655     S
V9     V11    10.0   1_645     S
V9     V7    10.0   1_556     S
V9     V24    10.0   .     S
V9     V23    10.0   .     S
V9     V6    10.0   1_645     S
V9     V21    10.0   1_655     S
V10     V8    10.0   1_465     S
V10     V12    10.0   1_554     S
V10     V11    10.0   .     S
V10     V19    10.0   .     S
V10     V20    10.0   .     S
V10     V1    10.0   1_465     S
V10     V22    10.0   1_455     S
V11     V9    10.0   1_465     S
V11     V12    10.0   .     S
V11     V20    10.0   .     S
V11     V21    10.0   .     S
V11     V2    10.0   1_465     S
V11     V23    10.0   1_455     S
V12     V4    10.0   1_556     S
V12     V7    10.0   1_466     S
V12     V10    10.0   1_556     S
V12     V21    10.0   .     S
V12     V19    10.0   1_556     S
V12     V3    10.0   1_465     S
V12     V24    10.0   1_455     S
V13     V3    10.0   1_554     S
V13     V18    10.0   1_554     S
V13     V24    10.0   1_554     S
V13     V14    10.0   .     S
V13     V15    10.0   1_554     S
V13     V22    10.0   .     S
V13     V19    10.0   .     S
V13     V4    10.0   1_545     S
V14     V16    10.0   .     S
V14     V22    10.0   .     S
V14     V15    10.0   .     S
V14     V23    10.0   .     S
V14     V20    10.0   .     S
V14     V5    10.0   1_545     S
V15     V17    10.0   .     S
V15     V23    10.0   .     S
V15     V13    10.0   1_556     S
V15     V24    10.0   .     S
V15     V21    10.0   .     S
V15     V6    10.0   1_545     S
V16     V20    10.0   .     S
V16     V18    10.0   1_554     S
V16     V17    10.0   .     S
V16     V19    10.0   .     S
V16     V22    10.0   .     S
V16     V1    10.0   1_565     S
V17     V21    10.0   .     S
V17     V18    10.0   .     S
V17     V20    10.0   .     S
V17     V23    10.0   .     S
V17     V2    10.0   1_565     S
V18     V4    10.0   1_556     S
V18     V19    10.0   1_556     S
V18     V13    10.0   1_556     S
V18     V16    10.0   1_556     S
V18     V21    10.0   .     S
V18     V24    10.0   .     S
V18     V3    10.0   1_565     S
V19     V18    10.0   1_554     S
V19     V22    10.0   1_455     S
V19     V20    10.0   .     S
V19     V21    10.0   1_554     S
V19     V12    10.0   1_554     S
V19     V7    10.0   1_455     S
V20     V23    10.0   1_455     S
V20     V21    10.0   .     S
V20     V8    10.0   1_455     S
V21     V24    10.0   1_455     S
V21     V19    10.0   1_556     S
V21     V9    10.0   1_455     S
V22     V19    10.0   1_655     S
V22     V24    10.0   1_554     S
V22     V23    10.0   .     S
V22     V10    10.0   1_655     S
V23     V20    10.0   1_655     S
V23     V24    10.0   .     S
V23     V11    10.0   1_655     S
V24     V13    10.0   1_556     S
V24     V21    10.0   1_655     S
V24     V7    10.0   1_556     S
V24     V22    10.0   1_556     S
V24     V12    10.0   1_655     S
