data_wfc
_audit_creation_date              2019-12-31
_audit_creation_method            'Pymatgen'
_symmetry_space_group_name_H-M    'P1'
_symmetry_Int_Tables_number       1
loop_
_symmetry_equiv_pos_as_xyz
  x,y,z
_cell_length_a                    35.7071
_cell_length_b                    35.7071
_cell_length_c                    30.0
_cell_angle_alpha                 90.0
_cell_angle_beta                 90.0
_cell_angle_gamma                 90.0
loop_
_atom_site_label
_atom_site_type_symbol
_atom_site_fract_x
_atom_site_fract_y
_atom_site_fract_z
V1     V     0.5882   0.8971   0.2917
V2     V     0.5882   0.8971   0.625
V3     V     0.5882   0.8971   0.9583
V4     V     0.4118   0.1029   0.0417
V5     V     0.4118   0.1029   0.375
V6     V     0.4118   0.1029   0.7083
V7     V     0.1471   0.1618   0.2917
V8     V     0.1471   0.1618   0.625
V9     V     0.1471   0.1618   0.9583
V10     V     0.3529   0.3382   0.2083
V11     V     0.3529   0.3382   0.5417
V12     V     0.3529   0.3382   0.875
V13     V     0.0882   0.8971   0.2083
V14     V     0.0882   0.8971   0.5417
V15     V     0.0882   0.8971   0.875
V16     V     0.9118   0.1029   0.125
V17     V     0.9118   0.1029   0.4583
V18     V     0.9118   0.1029   0.7917
V19     V     0.8529   0.8382   0.0417
V20     V     0.8529   0.8382   0.375
V21     V     0.8529   0.8382   0.7083
V22     V     0.6471   0.6618   0.125
V23     V     0.6471   0.6618   0.4583
V24     V     0.6471   0.6618   0.7917
V25     V     0.4118   0.6029   0.2917
V26     V     0.4118   0.6029   0.625
V27     V     0.4118   0.6029   0.9583
V28     V     0.5882   0.3971   0.0417
V29     V     0.5882   0.3971   0.375
V30     V     0.5882   0.3971   0.7083
V31     V     0.3529   0.8382   0.125
V32     V     0.3529   0.8382   0.4583
V33     V     0.3529   0.8382   0.7917
V34     V     0.1471   0.6618   0.0417
V35     V     0.1471   0.6618   0.375
V36     V     0.1471   0.6618   0.7083
V37     V     0.6471   0.1618   0.2083
V38     V     0.6471   0.1618   0.5417
V39     V     0.6471   0.1618   0.875
V40     V     0.8529   0.3382   0.2917
V41     V     0.8529   0.3382   0.625
V42     V     0.8529   0.3382   0.9583
V43     V     0.9118   0.6029   0.2083
V44     V     0.9118   0.6029   0.5417
V45     V     0.9118   0.6029   0.875
V46     V     0.0882   0.3971   0.125
V47     V     0.0882   0.3971   0.4583
V48     V     0.0882   0.3971   0.7917
loop_
_geom_bond_atom_site_label_1
_geom_bond_atom_site_label_2
_geom_bond_distance
_geom_bond_site_symmetry_2
_ccdc_geom_bond_type
V1     V31    10.0   .     S
V1     V3    10.0   1_554     S
V1     V2    10.0   .     S
V1     V32    10.0   .     S
V1     V5    10.0   1_565     S
V1     V37    10.0   1_565     S
V1     V22    10.0   .     S
V1     V23    10.0   .     S
V1     V20    10.0   .     S
V2     V32    10.0   .     S
V2     V3    10.0   .     S
V2     V33    10.0   .     S
V2     V6    10.0   1_565     S
V2     V38    10.0   1_565     S
V2     V23    10.0   .     S
V2     V24    10.0   .     S
V2     V21    10.0   .     S
V3     V33    10.0   .     S
V3     V1    10.0   1_556     S
V3     V31    10.0   1_556     S
V3     V4    10.0   1_566     S
V3     V39    10.0   1_565     S
V3     V24    10.0   .     S
V3     V22    10.0   1_556     S
V3     V19    10.0   1_556     S
V4     V37    10.0   .     S
V4     V5    10.0   .     S
V4     V6    10.0   1_554     S
V4     V39    10.0   1_554     S
V4     V3    10.0   1_544     S
V4     V31    10.0   1_545     S
V4     V10    10.0   .     S
V4     V12    10.0   1_554     S
V4     V9    10.0   1_554     S
V5     V38    10.0   .     S
V5     V6    10.0   .     S
V5     V37    10.0   .     S
V5     V1    10.0   1_545     S
V5     V32    10.0   1_545     S
V5     V11    10.0   .     S
V5     V10    10.0   .     S
V5     V7    10.0   .     S
V6     V39    10.0   .     S
V6     V4    10.0   1_556     S
V6     V38    10.0   .     S
V6     V2    10.0   1_545     S
V6     V33    10.0   1_545     S
V6     V12    10.0   .     S
V6     V11    10.0   .     S
V6     V8    10.0   .     S
V7     V47    10.0   .     S
V7     V9    10.0   1_554     S
V7     V8    10.0   .     S
V7     V46    10.0   .     S
V7     V10    10.0   .     S
V7     V17    10.0   1_455     S
V7     V16    10.0   1_455     S
V7     V13    10.0   1_545     S
V8     V48    10.0   .     S
V8     V9    10.0   .     S
V8     V47    10.0   .     S
V8     V11    10.0   .     S
V8     V18    10.0   1_455     S
V8     V17    10.0   1_455     S
V8     V14    10.0   1_545     S
V9     V46    10.0   1_556     S
V9     V7    10.0   1_556     S
V9     V48    10.0   .     S
V9     V12    10.0   .     S
V9     V4    10.0   1_556     S
V9     V16    10.0   1_456     S
V9     V18    10.0   1_455     S
V9     V15    10.0   1_545     S
V10     V12    10.0   1_554     S
V10     V11    10.0   .     S
V10     V46    10.0   .     S
V10     V28    10.0   .     S
V10     V29    10.0   .     S
V10     V25    10.0   .     S
V11     V12    10.0   .     S
V11     V47    10.0   .     S
V11     V29    10.0   .     S
V11     V30    10.0   .     S
V11     V26    10.0   .     S
V12     V10    10.0   1_556     S
V12     V4    10.0   1_556     S
V12     V48    10.0   .     S
V12     V30    10.0   .     S
V12     V28    10.0   1_556     S
V12     V27    10.0   .     S
V13     V20    10.0   1_455     S
V13     V15    10.0   1_554     S
V13     V14    10.0   .     S
V13     V19    10.0   1_455     S
V13     V16    10.0   1_465     S
V13     V7    10.0   1_565     S
V13     V35    10.0   .     S
V13     V34    10.0   .     S
V13     V31    10.0   .     S
V14     V21    10.0   1_455     S
V14     V15    10.0   .     S
V14     V20    10.0   1_455     S
V14     V17    10.0   1_465     S
V14     V8    10.0   1_565     S
V14     V36    10.0   .     S
V14     V35    10.0   .     S
V14     V32    10.0   .     S
V15     V19    10.0   1_456     S
V15     V13    10.0   1_556     S
V15     V21    10.0   1_455     S
V15     V18    10.0   1_465     S
V15     V9    10.0   1_565     S
V15     V34    10.0   1_556     S
V15     V36    10.0   .     S
V15     V33    10.0   .     S
V16     V9    10.0   1_654     S
V16     V17    10.0   .     S
V16     V18    10.0   1_554     S
V16     V7    10.0   1_655     S
V16     V13    10.0   1_645     S
V16     V19    10.0   1_545     S
V16     V42    10.0   1_554     S
V16     V40    10.0   .     S
V16     V37    10.0   .     S
V17     V7    10.0   1_655     S
V17     V18    10.0   .     S
V17     V8    10.0   1_655     S
V17     V14    10.0   1_645     S
V17     V20    10.0   1_545     S
V17     V40    10.0   .     S
V17     V41    10.0   .     S
V17     V38    10.0   .     S
V18     V8    10.0   1_655     S
V18     V16    10.0   1_556     S
V18     V9    10.0   1_655     S
V18     V15    10.0   1_645     S
V18     V21    10.0   1_545     S
V18     V41    10.0   .     S
V18     V42    10.0   .     S
V18     V39    10.0   .     S
V19     V15    10.0   1_654     S
V19     V13    10.0   1_655     S
V19     V16    10.0   1_565     S
V19     V45    10.0   1_554     S
V19     V20    10.0   .     S
V19     V21    10.0   1_554     S
V19     V43    10.0   .     S
V19     V22    10.0   .     S
V19     V3    10.0   1_554     S
V20     V13    10.0   1_655     S
V20     V14    10.0   1_655     S
V20     V17    10.0   1_565     S
V20     V43    10.0   .     S
V20     V21    10.0   .     S
V20     V44    10.0   .     S
V20     V23    10.0   .     S
V21     V14    10.0   1_655     S
V21     V15    10.0   1_655     S
V21     V18    10.0   1_565     S
V21     V44    10.0   .     S
V21     V19    10.0   1_556     S
V21     V45    10.0   .     S
V21     V24    10.0   .     S
V22     V23    10.0   .     S
V22     V24    10.0   1_554     S
V22     V3    10.0   1_554     S
V22     V43    10.0   .     S
V22     V25    10.0   .     S
V22     V27    10.0   1_554     S
V22     V28    10.0   .     S
V23     V24    10.0   .     S
V23     V44    10.0   .     S
V23     V26    10.0   .     S
V23     V25    10.0   .     S
V23     V29    10.0   .     S
V24     V22    10.0   1_556     S
V24     V45    10.0   .     S
V24     V27    10.0   .     S
V24     V26    10.0   .     S
V24     V30    10.0   .     S
V25     V27    10.0   1_554     S
V25     V26    10.0   .     S
V25     V29    10.0   .     S
V25     V31    10.0   .     S
V25     V32    10.0   .     S
V25     V35    10.0   .     S
V26     V27    10.0   .     S
V26     V30    10.0   .     S
V26     V32    10.0   .     S
V26     V33    10.0   .     S
V26     V36    10.0   .     S
V27     V25    10.0   1_556     S
V27     V22    10.0   1_556     S
V27     V28    10.0   1_556     S
V27     V33    10.0   .     S
V27     V31    10.0   1_556     S
V27     V34    10.0   1_556     S
V28     V29    10.0   .     S
V28     V30    10.0   1_554     S
V28     V12    10.0   1_554     S
V28     V27    10.0   1_554     S
V28     V37    10.0   .     S
V28     V39    10.0   1_554     S
V28     V42    10.0   1_554     S
V29     V30    10.0   .     S
V29     V38    10.0   .     S
V29     V37    10.0   .     S
V29     V40    10.0   .     S
V30     V28    10.0   1_556     S
V30     V39    10.0   .     S
V30     V38    10.0   .     S
V30     V41    10.0   .     S
V31     V3    10.0   1_554     S
V31     V4    10.0   1_565     S
V31     V32    10.0   .     S
V31     V33    10.0   1_554     S
V31     V27    10.0   1_554     S
V31     V34    10.0   .     S
V32     V5    10.0   1_565     S
V32     V33    10.0   .     S
V32     V35    10.0   .     S
V33     V6    10.0   1_565     S
V33     V31    10.0   1_556     S
V33     V36    10.0   .     S
V34     V15    10.0   1_554     S
V34     V35    10.0   .     S
V34     V36    10.0   1_554     S
V34     V27    10.0   1_554     S
V34     V45    10.0   1_454     S
V34     V43    10.0   1_455     S
V34     V46    10.0   .     S
V35     V36    10.0   .     S
V35     V43    10.0   1_455     S
V35     V44    10.0   1_455     S
V35     V47    10.0   .     S
V36     V34    10.0   1_556     S
V36     V44    10.0   1_455     S
V36     V45    10.0   1_455     S
V36     V48    10.0   .     S
V37     V1    10.0   1_545     S
V37     V39    10.0   1_554     S
V37     V38    10.0   .     S
V37     V40    10.0   .     S
V38     V2    10.0   1_545     S
V38     V39    10.0   .     S
V38     V41    10.0   .     S
V39     V4    10.0   1_556     S
V39     V3    10.0   1_545     S
V39     V37    10.0   1_556     S
V39     V28    10.0   1_556     S
V39     V42    10.0   .     S
V40     V42    10.0   1_554     S
V40     V41    10.0   .     S
V40     V47    10.0   1_655     S
V40     V46    10.0   1_655     S
V40     V43    10.0   .     S
V41     V42    10.0   .     S
V41     V48    10.0   1_655     S
V41     V47    10.0   1_655     S
V41     V44    10.0   .     S
V42     V16    10.0   1_556     S
V42     V40    10.0   1_556     S
V42     V28    10.0   1_556     S
V42     V46    10.0   1_656     S
V42     V48    10.0   1_655     S
V42     V45    10.0   .     S
V43     V35    10.0   1_655     S
V43     V45    10.0   1_554     S
V43     V44    10.0   .     S
V43     V34    10.0   1_655     S
V43     V46    10.0   1_655     S
V44     V36    10.0   1_655     S
V44     V45    10.0   .     S
V44     V35    10.0   1_655     S
V44     V47    10.0   1_655     S
V45     V19    10.0   1_556     S
V45     V34    10.0   1_656     S
V45     V43    10.0   1_556     S
V45     V36    10.0   1_655     S
V45     V48    10.0   1_655     S
V46     V9    10.0   1_554     S
V46     V42    10.0   1_454     S
V46     V47    10.0   .     S
V46     V48    10.0   1_554     S
V46     V40    10.0   1_455     S
V46     V43    10.0   1_455     S
V47     V40    10.0   1_455     S
V47     V48    10.0   .     S
V47     V41    10.0   1_455     S
V47     V44    10.0   1_455     S
V48     V41    10.0   1_455     S
V48     V46    10.0   1_556     S
V48     V42    10.0   1_455     S
V48     V45    10.0   1_455     S
