data_wff
_audit_creation_date              2019-12-31
_audit_creation_method            'Pymatgen'
_symmetry_space_group_name_H-M    'P1'
_symmetry_Int_Tables_number       1
loop_
_symmetry_equiv_pos_as_xyz
  x,y,z
_cell_length_a                    37.4614
_cell_length_b                    37.4614
_cell_length_c                    38.4686
_cell_angle_alpha                 90.0
_cell_angle_beta                 90.0
_cell_angle_gamma                 90.0
loop_
_atom_site_label
_atom_site_type_symbol
_atom_site_fract_x
_atom_site_fract_y
_atom_site_fract_z
V1     V     0.4009   0.0991   0.087
V2     V     0.4009   0.0991   0.587
V3     V     0.4009   0.5991   0.087
V4     V     0.4009   0.5991   0.587
V5     V     0.9009   0.0991   0.087
V6     V     0.9009   0.0991   0.587
V7     V     0.9009   0.5991   0.087
V8     V     0.9009   0.5991   0.587
V9     V     0.3491   0.1509   0.337
V10     V     0.3491   0.1509   0.837
V11     V     0.3491   0.6509   0.337
V12     V     0.3491   0.6509   0.837
V13     V     0.8491   0.1509   0.337
V14     V     0.8491   0.1509   0.837
V15     V     0.8491   0.6509   0.337
V16     V     0.8491   0.6509   0.837
V17     V     0.3491   0.3491   0.163
V18     V     0.3491   0.3491   0.663
V19     V     0.3491   0.8491   0.163
V20     V     0.3491   0.8491   0.663
V21     V     0.8491   0.3491   0.163
V22     V     0.8491   0.3491   0.663
V23     V     0.8491   0.8491   0.163
V24     V     0.8491   0.8491   0.663
V25     V     0.4009   0.4009   0.413
V26     V     0.4009   0.4009   0.913
V27     V     0.4009   0.9009   0.413
V28     V     0.4009   0.9009   0.913
V29     V     0.9009   0.4009   0.413
V30     V     0.9009   0.4009   0.913
V31     V     0.9009   0.9009   0.413
V32     V     0.9009   0.9009   0.913
V33     V     0.0991   0.4009   0.087
V34     V     0.0991   0.4009   0.587
V35     V     0.0991   0.9009   0.087
V36     V     0.0991   0.9009   0.587
V37     V     0.5991   0.4009   0.087
V38     V     0.5991   0.4009   0.587
V39     V     0.5991   0.9009   0.087
V40     V     0.5991   0.9009   0.587
V41     V     0.1509   0.3491   0.337
V42     V     0.1509   0.3491   0.837
V43     V     0.1509   0.8491   0.337
V44     V     0.1509   0.8491   0.837
V45     V     0.6509   0.3491   0.337
V46     V     0.6509   0.3491   0.837
V47     V     0.6509   0.8491   0.337
V48     V     0.6509   0.8491   0.837
V49     V     0.1509   0.1509   0.163
V50     V     0.1509   0.1509   0.663
V51     V     0.1509   0.6509   0.163
V52     V     0.1509   0.6509   0.663
V53     V     0.6509   0.1509   0.163
V54     V     0.6509   0.1509   0.663
V55     V     0.6509   0.6509   0.163
V56     V     0.6509   0.6509   0.663
V57     V     0.0991   0.0991   0.413
V58     V     0.0991   0.0991   0.913
V59     V     0.0991   0.5991   0.413
V60     V     0.0991   0.5991   0.913
V61     V     0.5991   0.0991   0.413
V62     V     0.5991   0.0991   0.913
V63     V     0.5991   0.5991   0.413
V64     V     0.5991   0.5991   0.913
loop_
_geom_bond_atom_site_label_1
_geom_bond_atom_site_label_2
_geom_bond_distance
_geom_bond_site_symmetry_2
_ccdc_geom_bond_type
V1     V49    10.0   .     S
V1     V17    10.0   .     S
V1     V53    10.0   .     S
V1     V62    10.0   1_554     S
V1     V10    10.0   1_554     S
V1     V9    10.0   .     S
V1     V19    10.0   1_545     S
V1     V28    10.0   1_544     S
V2     V50    10.0   .     S
V2     V18    10.0   .     S
V2     V54    10.0   .     S
V2     V61    10.0   .     S
V2     V9    10.0   .     S
V2     V10    10.0   .     S
V2     V20    10.0   1_545     S
V2     V27    10.0   1_545     S
V3     V51    10.0   .     S
V3     V19    10.0   .     S
V3     V55    10.0   .     S
V3     V64    10.0   1_554     S
V3     V12    10.0   1_554     S
V3     V11    10.0   .     S
V3     V17    10.0   .     S
V3     V26    10.0   1_554     S
V4     V52    10.0   .     S
V4     V20    10.0   .     S
V4     V56    10.0   .     S
V4     V63    10.0   .     S
V4     V11    10.0   .     S
V4     V12    10.0   .     S
V4     V18    10.0   .     S
V4     V25    10.0   .     S
V5     V53    10.0   .     S
V5     V21    10.0   .     S
V5     V49    10.0   1_655     S
V5     V58    10.0   1_654     S
V5     V14    10.0   1_554     S
V5     V13    10.0   .     S
V5     V23    10.0   1_545     S
V5     V32    10.0   1_544     S
V6     V54    10.0   .     S
V6     V22    10.0   .     S
V6     V50    10.0   1_655     S
V6     V57    10.0   1_655     S
V6     V13    10.0   .     S
V6     V14    10.0   .     S
V6     V24    10.0   1_545     S
V6     V31    10.0   1_545     S
V7     V55    10.0   .     S
V7     V23    10.0   .     S
V7     V51    10.0   1_655     S
V7     V60    10.0   1_654     S
V7     V16    10.0   1_554     S
V7     V15    10.0   .     S
V7     V21    10.0   .     S
V7     V30    10.0   1_554     S
V8     V56    10.0   .     S
V8     V24    10.0   .     S
V8     V52    10.0   1_655     S
V8     V59    10.0   1_655     S
V8     V15    10.0   .     S
V8     V16    10.0   .     S
V8     V22    10.0   .     S
V8     V29    10.0   .     S
V9     V57    10.0   .     S
V9     V49    10.0   .     S
V9     V25    10.0   .     S
V9     V17    10.0   .     S
V9     V61    10.0   .     S
V9     V27    10.0   1_545     S
V10     V58    10.0   .     S
V10     V50    10.0   .     S
V10     V26    10.0   .     S
V10     V18    10.0   .     S
V10     V62    10.0   .     S
V10     V1    10.0   1_556     S
V10     V28    10.0   1_545     S
V11     V59    10.0   .     S
V11     V51    10.0   .     S
V11     V27    10.0   .     S
V11     V19    10.0   .     S
V11     V63    10.0   .     S
V11     V25    10.0   .     S
V12     V60    10.0   .     S
V12     V52    10.0   .     S
V12     V28    10.0   .     S
V12     V20    10.0   .     S
V12     V64    10.0   .     S
V12     V3    10.0   1_556     S
V12     V26    10.0   .     S
V13     V61    10.0   .     S
V13     V53    10.0   .     S
V13     V29    10.0   .     S
V13     V21    10.0   .     S
V13     V57    10.0   1_655     S
V13     V31    10.0   1_545     S
V14     V62    10.0   .     S
V14     V54    10.0   .     S
V14     V30    10.0   .     S
V14     V22    10.0   .     S
V14     V58    10.0   1_655     S
V14     V5    10.0   1_556     S
V14     V32    10.0   1_545     S
V15     V63    10.0   .     S
V15     V55    10.0   .     S
V15     V31    10.0   .     S
V15     V23    10.0   .     S
V15     V59    10.0   1_655     S
V15     V29    10.0   .     S
V16     V64    10.0   .     S
V16     V56    10.0   .     S
V16     V32    10.0   .     S
V16     V24    10.0   .     S
V16     V60    10.0   1_655     S
V16     V7    10.0   1_556     S
V16     V30    10.0   .     S
V17     V41    10.0   .     S
V17     V33    10.0   .     S
V17     V25    10.0   .     S
V17     V26    10.0   1_554     S
V17     V37    10.0   .     S
V18     V42    10.0   .     S
V18     V34    10.0   .     S
V18     V26    10.0   .     S
V18     V25    10.0   .     S
V18     V38    10.0   .     S
V19     V43    10.0   .     S
V19     V35    10.0   .     S
V19     V1    10.0   1_565     S
V19     V27    10.0   .     S
V19     V28    10.0   1_554     S
V19     V39    10.0   .     S
V20     V44    10.0   .     S
V20     V36    10.0   .     S
V20     V2    10.0   1_565     S
V20     V28    10.0   .     S
V20     V27    10.0   .     S
V20     V40    10.0   .     S
V21     V45    10.0   .     S
V21     V37    10.0   .     S
V21     V29    10.0   .     S
V21     V30    10.0   1_554     S
V21     V33    10.0   1_655     S
V22     V46    10.0   .     S
V22     V38    10.0   .     S
V22     V30    10.0   .     S
V22     V29    10.0   .     S
V22     V34    10.0   1_655     S
V23     V47    10.0   .     S
V23     V39    10.0   .     S
V23     V5    10.0   1_565     S
V23     V31    10.0   .     S
V23     V32    10.0   1_554     S
V23     V35    10.0   1_655     S
V24     V48    10.0   .     S
V24     V40    10.0   .     S
V24     V6    10.0   1_565     S
V24     V32    10.0   .     S
V24     V31    10.0   .     S
V24     V36    10.0   1_655     S
V25     V41    10.0   .     S
V25     V38    10.0   .     S
V25     V45    10.0   .     S
V26     V42    10.0   .     S
V26     V3    10.0   1_556     S
V26     V17    10.0   1_556     S
V26     V37    10.0   1_556     S
V26     V46    10.0   .     S
V27     V43    10.0   .     S
V27     V2    10.0   1_565     S
V27     V9    10.0   1_565     S
V27     V40    10.0   .     S
V27     V47    10.0   .     S
V28     V44    10.0   .     S
V28     V1    10.0   1_566     S
V28     V10    10.0   1_565     S
V28     V19    10.0   1_556     S
V28     V39    10.0   1_556     S
V28     V48    10.0   .     S
V29     V45    10.0   .     S
V29     V34    10.0   1_655     S
V29     V41    10.0   1_655     S
V30     V46    10.0   .     S
V30     V7    10.0   1_556     S
V30     V21    10.0   1_556     S
V30     V33    10.0   1_656     S
V30     V42    10.0   1_655     S
V31     V47    10.0   .     S
V31     V6    10.0   1_565     S
V31     V13    10.0   1_565     S
V31     V36    10.0   1_655     S
V31     V43    10.0   1_655     S
V32     V48    10.0   .     S
V32     V5    10.0   1_566     S
V32     V14    10.0   1_565     S
V32     V23    10.0   1_556     S
V32     V35    10.0   1_656     S
V32     V44    10.0   1_655     S
V33     V49    10.0   .     S
V33     V21    10.0   1_455     S
V33     V30    10.0   1_454     S
V33     V42    10.0   1_554     S
V33     V41    10.0   .     S
V33     V51    10.0   .     S
V33     V60    10.0   1_554     S
V34     V50    10.0   .     S
V34     V22    10.0   1_455     S
V34     V29    10.0   1_455     S
V34     V41    10.0   .     S
V34     V42    10.0   .     S
V34     V52    10.0   .     S
V34     V59    10.0   .     S
V35     V51    10.0   .     S
V35     V23    10.0   1_455     S
V35     V32    10.0   1_454     S
V35     V44    10.0   1_554     S
V35     V43    10.0   .     S
V35     V49    10.0   1_565     S
V35     V58    10.0   1_564     S
V36     V52    10.0   .     S
V36     V24    10.0   1_455     S
V36     V31    10.0   1_455     S
V36     V43    10.0   .     S
V36     V44    10.0   .     S
V36     V50    10.0   1_565     S
V36     V57    10.0   1_565     S
V37     V53    10.0   .     S
V37     V26    10.0   1_554     S
V37     V46    10.0   1_554     S
V37     V45    10.0   .     S
V37     V55    10.0   .     S
V37     V64    10.0   1_554     S
V38     V54    10.0   .     S
V38     V45    10.0   .     S
V38     V46    10.0   .     S
V38     V56    10.0   .     S
V38     V63    10.0   .     S
V39     V55    10.0   .     S
V39     V28    10.0   1_554     S
V39     V48    10.0   1_554     S
V39     V47    10.0   .     S
V39     V53    10.0   1_565     S
V39     V62    10.0   1_564     S
V40     V56    10.0   .     S
V40     V47    10.0   .     S
V40     V48    10.0   .     S
V40     V54    10.0   1_565     S
V40     V61    10.0   1_565     S
V41     V57    10.0   .     S
V41     V49    10.0   .     S
V41     V29    10.0   1_455     S
V41     V59    10.0   .     S
V42     V58    10.0   .     S
V42     V50    10.0   .     S
V42     V30    10.0   1_455     S
V42     V33    10.0   1_556     S
V42     V60    10.0   .     S
V43     V59    10.0   .     S
V43     V51    10.0   .     S
V43     V31    10.0   1_455     S
V43     V57    10.0   1_565     S
V44     V60    10.0   .     S
V44     V52    10.0   .     S
V44     V32    10.0   1_455     S
V44     V35    10.0   1_556     S
V44     V58    10.0   1_565     S
V45     V61    10.0   .     S
V45     V53    10.0   .     S
V45     V63    10.0   .     S
V46     V62    10.0   .     S
V46     V54    10.0   .     S
V46     V37    10.0   1_556     S
V46     V64    10.0   .     S
V47     V63    10.0   .     S
V47     V55    10.0   .     S
V47     V61    10.0   1_565     S
V48     V64    10.0   .     S
V48     V56    10.0   .     S
V48     V39    10.0   1_556     S
V48     V62    10.0   1_565     S
V49     V5    10.0   1_455     S
V49     V57    10.0   .     S
V49     V58    10.0   1_554     S
V49     V35    10.0   1_545     S
V50     V6    10.0   1_455     S
V50     V58    10.0   .     S
V50     V57    10.0   .     S
V50     V36    10.0   1_545     S
V51     V7    10.0   1_455     S
V51     V59    10.0   .     S
V51     V60    10.0   1_554     S
V52     V8    10.0   1_455     S
V52     V60    10.0   .     S
V52     V59    10.0   .     S
V53     V61    10.0   .     S
V53     V62    10.0   1_554     S
V53     V39    10.0   1_545     S
V54     V62    10.0   .     S
V54     V61    10.0   .     S
V54     V40    10.0   1_545     S
V55     V63    10.0   .     S
V55     V64    10.0   1_554     S
V56     V64    10.0   .     S
V56     V63    10.0   .     S
V57     V6    10.0   1_455     S
V57     V13    10.0   1_455     S
V57     V36    10.0   1_545     S
V57     V43    10.0   1_545     S
V58     V5    10.0   1_456     S
V58     V14    10.0   1_455     S
V58     V49    10.0   1_556     S
V58     V35    10.0   1_546     S
V58     V44    10.0   1_545     S
V59     V8    10.0   1_455     S
V59     V15    10.0   1_455     S
V60     V7    10.0   1_456     S
V60     V16    10.0   1_455     S
V60     V51    10.0   1_556     S
V60     V33    10.0   1_556     S
V61     V40    10.0   1_545     S
V61     V47    10.0   1_545     S
V62     V1    10.0   1_556     S
V62     V53    10.0   1_556     S
V62     V39    10.0   1_546     S
V62     V48    10.0   1_545     S
V64     V3    10.0   1_556     S
V64     V55    10.0   1_556     S
V64     V37    10.0   1_556     S
