data_wfh
_audit_creation_date              2019-12-31
_audit_creation_method            'Pymatgen'
_symmetry_space_group_name_H-M    'P1'
_symmetry_Int_Tables_number       1
loop_
_symmetry_equiv_pos_as_xyz
  x,y,z
_cell_length_a                    29.8482
_cell_length_b                    29.8482
_cell_length_c                    33.6356
_cell_angle_alpha                 90.0
_cell_angle_beta                 90.0
_cell_angle_gamma                 90.0
loop_
_atom_site_label
_atom_site_type_symbol
_atom_site_fract_x
_atom_site_fract_y
_atom_site_fract_z
V1     V     0.5311   0.6593   0.0366
V2     V     0.5311   0.6593   0.5366
V3     V     0.6593   0.5311   0.2866
V4     V     0.6593   0.5311   0.7866
V5     V     0.3407   0.4689   0.2134
V6     V     0.3407   0.4689   0.7134
V7     V     0.4689   0.3407   0.4634
V8     V     0.4689   0.3407   0.9634
V9     V     0.8407   0.5311   0.0366
V10     V     0.8407   0.5311   0.5366
V11     V     0.9689   0.6593   0.2866
V12     V     0.9689   0.6593   0.7866
V13     V     0.0311   0.3407   0.2134
V14     V     0.0311   0.3407   0.7134
V15     V     0.1593   0.4689   0.4634
V16     V     0.1593   0.4689   0.9634
V17     V     0.6593   0.9689   0.0366
V18     V     0.6593   0.9689   0.5366
V19     V     0.5311   0.8407   0.2866
V20     V     0.5311   0.8407   0.7866
V21     V     0.3407   0.0311   0.4634
V22     V     0.3407   0.0311   0.9634
V23     V     0.4689   0.1593   0.2134
V24     V     0.4689   0.1593   0.7134
V25     V     0.9689   0.8407   0.0366
V26     V     0.9689   0.8407   0.5366
V27     V     0.8407   0.9689   0.2866
V28     V     0.8407   0.9689   0.7866
V29     V     0.1593   0.0311   0.2134
V30     V     0.1593   0.0311   0.7134
V31     V     0.0311   0.1593   0.4634
V32     V     0.0311   0.1593   0.9634
loop_
_geom_bond_atom_site_label_1
_geom_bond_atom_site_label_2
_geom_bond_distance
_geom_bond_site_symmetry_2
_ccdc_geom_bond_type
V1     V9    10.0   .     S
V1     V4    10.0   1_554     S
V1     V3    10.0   .     S
V1     V5    10.0   .     S
V1     V17    10.0   .     S
V1     V19    10.0   .     S
V1     V20    10.0   1_554     S
V1     V8    10.0   1_554     S
V2     V10    10.0   .     S
V2     V3    10.0   .     S
V2     V4    10.0   .     S
V2     V6    10.0   .     S
V2     V18    10.0   .     S
V2     V20    10.0   .     S
V2     V19    10.0   .     S
V2     V7    10.0   .     S
V3     V19    10.0   .     S
V3     V7    10.0   .     S
V3     V11    10.0   .     S
V3     V9    10.0   .     S
V3     V10    10.0   .     S
V3     V5    10.0   .     S
V4     V1    10.0   1_556     S
V4     V20    10.0   .     S
V4     V8    10.0   .     S
V4     V12    10.0   .     S
V4     V10    10.0   .     S
V4     V9    10.0   1_556     S
V4     V6    10.0   .     S
V5     V23    10.0   .     S
V5     V7    10.0   .     S
V5     V8    10.0   1_554     S
V5     V13    10.0   .     S
V5     V16    10.0   1_554     S
V5     V15    10.0   .     S
V6     V24    10.0   .     S
V6     V8    10.0   .     S
V6     V7    10.0   .     S
V6     V14    10.0   .     S
V6     V15    10.0   .     S
V6     V16    10.0   .     S
V7     V15    10.0   .     S
V7     V21    10.0   .     S
V7     V24    10.0   .     S
V7     V23    10.0   .     S
V8     V5    10.0   1_556     S
V8     V16    10.0   .     S
V8     V22    10.0   .     S
V8     V23    10.0   1_556     S
V8     V24    10.0   .     S
V8     V1    10.0   1_556     S
V9     V25    10.0   .     S
V9     V12    10.0   1_554     S
V9     V11    10.0   .     S
V9     V13    10.0   1_655     S
V9     V4    10.0   1_554     S
V9     V16    10.0   1_654     S
V10     V26    10.0   .     S
V10     V11    10.0   .     S
V10     V12    10.0   .     S
V10     V14    10.0   1_655     S
V10     V15    10.0   1_655     S
V11     V15    10.0   1_655     S
V11     V27    10.0   .     S
V11     V25    10.0   .     S
V11     V26    10.0   .     S
V11     V13    10.0   1_655     S
V12     V9    10.0   1_556     S
V12     V16    10.0   1_655     S
V12     V28    10.0   .     S
V12     V26    10.0   .     S
V12     V25    10.0   1_556     S
V12     V14    10.0   1_655     S
V13     V15    10.0   .     S
V13     V16    10.0   1_554     S
V13     V9    10.0   1_455     S
V13     V29    10.0   .     S
V13     V32    10.0   1_554     S
V13     V31    10.0   .     S
V13     V11    10.0   1_455     S
V14     V16    10.0   .     S
V14     V15    10.0   .     S
V14     V10    10.0   1_455     S
V14     V30    10.0   .     S
V14     V31    10.0   .     S
V14     V32    10.0   .     S
V14     V12    10.0   1_455     S
V15     V31    10.0   .     S
V15     V11    10.0   1_455     S
V15     V10    10.0   1_455     S
V16     V13    10.0   1_556     S
V16     V32    10.0   .     S
V16     V12    10.0   1_455     S
V16     V5    10.0   1_556     S
V16     V9    10.0   1_456     S
V17     V20    10.0   1_554     S
V17     V19    10.0   .     S
V17     V23    10.0   1_565     S
V17     V25    10.0   .     S
V17     V27    10.0   .     S
V17     V28    10.0   1_554     S
V17     V22    10.0   1_564     S
V18     V19    10.0   .     S
V18     V20    10.0   .     S
V18     V24    10.0   1_565     S
V18     V26    10.0   .     S
V18     V28    10.0   .     S
V18     V27    10.0   .     S
V18     V21    10.0   1_565     S
V19     V27    10.0   .     S
V19     V21    10.0   1_565     S
V19     V23    10.0   1_565     S
V20     V17    10.0   1_556     S
V20     V28    10.0   .     S
V20     V22    10.0   1_565     S
V20     V1    10.0   1_556     S
V20     V24    10.0   1_565     S
V21     V23    10.0   .     S
V21     V24    10.0   .     S
V21     V19    10.0   1_545     S
V21     V31    10.0   .     S
V21     V30    10.0   .     S
V21     V29    10.0   .     S
V21     V18    10.0   1_545     S
V22     V24    10.0   .     S
V22     V23    10.0   1_556     S
V22     V20    10.0   1_545     S
V22     V32    10.0   .     S
V22     V29    10.0   1_556     S
V22     V30    10.0   .     S
V22     V17    10.0   1_546     S
V23     V29    10.0   .     S
V23     V22    10.0   1_554     S
V23     V17    10.0   1_545     S
V23     V8    10.0   1_554     S
V23     V19    10.0   1_545     S
V24     V30    10.0   .     S
V24     V18    10.0   1_545     S
V24     V20    10.0   1_545     S
V25     V28    10.0   1_554     S
V25     V27    10.0   .     S
V25     V29    10.0   1_665     S
V25     V12    10.0   1_554     S
V25     V32    10.0   1_664     S
V26     V27    10.0   .     S
V26     V28    10.0   .     S
V26     V30    10.0   1_665     S
V26     V31    10.0   1_665     S
V27     V31    10.0   1_665     S
V27     V29    10.0   1_665     S
V28     V25    10.0   1_556     S
V28     V32    10.0   1_665     S
V28     V17    10.0   1_556     S
V28     V30    10.0   1_665     S
V29     V31    10.0   .     S
V29     V32    10.0   1_554     S
V29     V25    10.0   1_445     S
V29     V22    10.0   1_554     S
V29     V27    10.0   1_445     S
V30     V32    10.0   .     S
V30     V31    10.0   .     S
V30     V26    10.0   1_445     S
V30     V28    10.0   1_445     S
V31     V27    10.0   1_445     S
V31     V26    10.0   1_445     S
V32     V29    10.0   1_556     S
V32     V28    10.0   1_445     S
V32     V13    10.0   1_556     S
V32     V25    10.0   1_446     S
