data_wfi
_audit_creation_date              2019-12-31
_audit_creation_method            'Pymatgen'
_symmetry_space_group_name_H-M    'P1'
_symmetry_Int_Tables_number       1
loop_
_symmetry_equiv_pos_as_xyz
  x,y,z
_cell_length_a                    27.1996
_cell_length_b                    27.1996
_cell_length_c                    37.3363
_cell_angle_alpha                 90.0
_cell_angle_beta                 90.0
_cell_angle_gamma                 90.0
loop_
_atom_site_label
_atom_site_type_symbol
_atom_site_fract_x
_atom_site_fract_y
_atom_site_fract_z
V1     V     0.316   0.066   0.4633
V2     V     0.316   0.566   0.4633
V3     V     0.816   0.066   0.4633
V4     V     0.816   0.566   0.4633
V5     V     0.066   0.316   0.5367
V6     V     0.066   0.816   0.5367
V7     V     0.566   0.316   0.5367
V8     V     0.566   0.816   0.5367
V9     V     0.434   0.316   0.7867
V10     V     0.434   0.816   0.7867
V11     V     0.934   0.316   0.7867
V12     V     0.934   0.816   0.7867
V13     V     0.184   0.066   0.7133
V14     V     0.184   0.566   0.7133
V15     V     0.684   0.066   0.7133
V16     V     0.684   0.566   0.7133
V17     V     0.434   0.184   0.0367
V18     V     0.434   0.684   0.0367
V19     V     0.934   0.184   0.0367
V20     V     0.934   0.684   0.0367
V21     V     0.184   0.434   0.9633
V22     V     0.184   0.934   0.9633
V23     V     0.684   0.434   0.9633
V24     V     0.684   0.934   0.9633
V25     V     0.316   0.434   0.2133
V26     V     0.316   0.934   0.2133
V27     V     0.816   0.434   0.2133
V28     V     0.816   0.934   0.2133
V29     V     0.066   0.184   0.2867
V30     V     0.066   0.684   0.2867
V31     V     0.566   0.184   0.2867
V32     V     0.566   0.684   0.2867
loop_
_geom_bond_atom_site_label_1
_geom_bond_atom_site_label_2
_geom_bond_distance
_geom_bond_site_symmetry_2
_ccdc_geom_bond_type
V1     V26    10.0   1_545     S
V1     V29    10.0   .     S
V1     V31    10.0   .     S
V1     V8    10.0   1_545     S
V1     V7    10.0   .     S
V1     V6    10.0   1_545     S
V1     V13    10.0   .     S
V1     V5    10.0   .     S
V2     V25    10.0   .     S
V2     V30    10.0   .     S
V2     V32    10.0   .     S
V2     V7    10.0   .     S
V2     V8    10.0   .     S
V2     V5    10.0   .     S
V2     V14    10.0   .     S
V2     V6    10.0   .     S
V3     V28    10.0   1_545     S
V3     V31    10.0   .     S
V3     V29    10.0   1_655     S
V3     V6    10.0   1_645     S
V3     V5    10.0   1_655     S
V3     V8    10.0   1_545     S
V3     V15    10.0   .     S
V3     V7    10.0   .     S
V4     V27    10.0   .     S
V4     V32    10.0   .     S
V4     V30    10.0   1_655     S
V4     V5    10.0   1_655     S
V4     V6    10.0   1_655     S
V4     V7    10.0   .     S
V4     V16    10.0   .     S
V4     V8    10.0   .     S
V5     V29    10.0   .     S
V5     V11    10.0   1_455     S
V5     V13    10.0   .     S
V5     V4    10.0   1_455     S
V5     V3    10.0   1_455     S
V5     V14    10.0   .     S
V6     V30    10.0   .     S
V6     V12    10.0   1_455     S
V6     V14    10.0   .     S
V6     V3    10.0   1_465     S
V6     V4    10.0   1_455     S
V6     V1    10.0   1_565     S
V6     V13    10.0   1_565     S
V7     V31    10.0   .     S
V7     V9    10.0   .     S
V7     V15    10.0   .     S
V7     V16    10.0   .     S
V8     V32    10.0   .     S
V8     V10    10.0   .     S
V8     V16    10.0   .     S
V8     V1    10.0   1_565     S
V8     V3    10.0   1_565     S
V8     V15    10.0   1_565     S
V9     V16    10.0   .     S
V9     V14    10.0   .     S
V9     V13    10.0   .     S
V9     V15    10.0   .     S
V9     V21    10.0   .     S
V9     V17    10.0   1_556     S
V9     V23    10.0   .     S
V10     V15    10.0   1_565     S
V10     V13    10.0   1_565     S
V10     V14    10.0   .     S
V10     V16    10.0   .     S
V10     V22    10.0   .     S
V10     V18    10.0   1_556     S
V10     V24    10.0   .     S
V11     V5    10.0   1_655     S
V11     V14    10.0   1_655     S
V11     V16    10.0   .     S
V11     V15    10.0   .     S
V11     V13    10.0   1_655     S
V11     V23    10.0   .     S
V11     V19    10.0   1_556     S
V11     V21    10.0   1_655     S
V12     V6    10.0   1_655     S
V12     V13    10.0   1_665     S
V12     V15    10.0   1_565     S
V12     V16    10.0   .     S
V12     V14    10.0   1_655     S
V12     V24    10.0   .     S
V12     V20    10.0   1_556     S
V12     V22    10.0   1_655     S
V13     V12    10.0   1_445     S
V13     V6    10.0   1_545     S
V13     V10    10.0   1_545     S
V13     V11    10.0   1_455     S
V13     V22    10.0   1_545     S
V14     V11    10.0   1_455     S
V14     V12    10.0   1_455     S
V14     V21    10.0   .     S
V15     V10    10.0   1_545     S
V15     V8    10.0   1_545     S
V15     V12    10.0   1_545     S
V15     V24    10.0   1_545     S
V16     V23    10.0   .     S
V17     V31    10.0   .     S
V17     V25    10.0   .     S
V17     V24    10.0   1_544     S
V17     V22    10.0   1_544     S
V17     V23    10.0   1_554     S
V17     V9    10.0   1_554     S
V17     V21    10.0   1_554     S
V17     V26    10.0   1_545     S
V18     V32    10.0   .     S
V18     V26    10.0   .     S
V18     V23    10.0   1_554     S
V18     V21    10.0   1_554     S
V18     V24    10.0   1_554     S
V18     V10    10.0   1_554     S
V18     V22    10.0   1_554     S
V18     V25    10.0   .     S
V19     V29    10.0   1_655     S
V19     V27    10.0   .     S
V19     V22    10.0   1_644     S
V19     V24    10.0   1_544     S
V19     V21    10.0   1_654     S
V19     V11    10.0   1_554     S
V19     V23    10.0   1_554     S
V19     V28    10.0   1_545     S
V20     V30    10.0   1_655     S
V20     V28    10.0   .     S
V20     V21    10.0   1_654     S
V20     V23    10.0   1_554     S
V20     V22    10.0   1_654     S
V20     V12    10.0   1_554     S
V20     V24    10.0   1_554     S
V20     V27    10.0   .     S
V21     V20    10.0   1_456     S
V21     V18    10.0   1_556     S
V21     V19    10.0   1_456     S
V21     V11    10.0   1_455     S
V21     V17    10.0   1_556     S
V21     V25    10.0   1_556     S
V22     V13    10.0   1_565     S
V22     V19    10.0   1_466     S
V22     V17    10.0   1_566     S
V22     V20    10.0   1_456     S
V22     V12    10.0   1_455     S
V22     V18    10.0   1_556     S
V22     V26    10.0   1_556     S
V23     V18    10.0   1_556     S
V23     V20    10.0   1_556     S
V23     V17    10.0   1_556     S
V23     V19    10.0   1_556     S
V23     V27    10.0   1_556     S
V24     V15    10.0   1_565     S
V24     V17    10.0   1_566     S
V24     V19    10.0   1_566     S
V24     V18    10.0   1_556     S
V24     V20    10.0   1_556     S
V24     V28    10.0   1_556     S
V25     V32    10.0   .     S
V25     V21    10.0   1_554     S
V25     V31    10.0   .     S
V25     V29    10.0   .     S
V25     V30    10.0   .     S
V26     V1    10.0   1_565     S
V26     V31    10.0   1_565     S
V26     V22    10.0   1_554     S
V26     V17    10.0   1_565     S
V26     V32    10.0   .     S
V26     V30    10.0   .     S
V26     V29    10.0   1_565     S
V27     V30    10.0   1_655     S
V27     V23    10.0   1_554     S
V27     V29    10.0   1_655     S
V27     V31    10.0   .     S
V27     V32    10.0   .     S
V28     V3    10.0   1_565     S
V28     V29    10.0   1_665     S
V28     V24    10.0   1_554     S
V28     V19    10.0   1_565     S
V28     V30    10.0   1_655     S
V28     V32    10.0   .     S
V28     V31    10.0   1_565     S
V29     V28    10.0   1_445     S
V29     V19    10.0   1_455     S
V29     V3    10.0   1_455     S
V29     V27    10.0   1_455     S
V29     V26    10.0   1_545     S
V30     V27    10.0   1_455     S
V30     V20    10.0   1_455     S
V30     V4    10.0   1_455     S
V30     V28    10.0   1_455     S
V31     V26    10.0   1_545     S
V31     V28    10.0   1_545     S
