data_wfk
_audit_creation_date              2019-12-31
_audit_creation_method            'Pymatgen'
_symmetry_space_group_name_H-M    'P1'
_symmetry_Int_Tables_number       1
loop_
_symmetry_equiv_pos_as_xyz
  x,y,z
_cell_length_a                    32.2473
_cell_length_b                    32.2473
_cell_length_c                    28.2846
_cell_angle_alpha                 90.0
_cell_angle_beta                 90.0
_cell_angle_gamma                 90.0
loop_
_atom_site_label
_atom_site_type_symbol
_atom_site_fract_x
_atom_site_fract_y
_atom_site_fract_z
V1     V     0.631   0.1671   0.3125
V2     V     0.631   0.1671   0.8125
V3     V     0.9171   0.119   0.1875
V4     V     0.9171   0.119   0.6875
V5     V     0.869   0.8329   0.0625
V6     V     0.869   0.8329   0.5625
V7     V     0.5829   0.881   0.4375
V8     V     0.5829   0.881   0.9375
V9     V     0.131   0.6671   0.0625
V10     V     0.131   0.6671   0.5625
V11     V     0.4171   0.619   0.4375
V12     V     0.4171   0.619   0.9375
V13     V     0.0829   0.381   0.1875
V14     V     0.0829   0.381   0.6875
V15     V     0.369   0.3329   0.3125
V16     V     0.369   0.3329   0.8125
V17     V     0.631   0.6671   0.1875
V18     V     0.631   0.6671   0.6875
V19     V     0.5829   0.381   0.0625
V20     V     0.5829   0.381   0.5625
V21     V     0.869   0.3329   0.4375
V22     V     0.869   0.3329   0.9375
V23     V     0.9171   0.619   0.3125
V24     V     0.9171   0.619   0.8125
V25     V     0.369   0.8329   0.1875
V26     V     0.369   0.8329   0.6875
V27     V     0.0829   0.881   0.3125
V28     V     0.0829   0.881   0.8125
V29     V     0.4171   0.119   0.0625
V30     V     0.4171   0.119   0.5625
V31     V     0.131   0.1671   0.4375
V32     V     0.131   0.1671   0.9375
loop_
_geom_bond_atom_site_label_1
_geom_bond_atom_site_label_2
_geom_bond_distance
_geom_bond_site_symmetry_2
_ccdc_geom_bond_type
V1     V19    10.0   .     S
V1     V29    10.0   .     S
V1     V3    10.0   .     S
V1     V7    10.0   1_545     S
V1     V15    10.0   .     S
V1     V21    10.0   .     S
V1     V20    10.0   .     S
V1     V30    10.0   .     S
V2     V20    10.0   .     S
V2     V30    10.0   .     S
V2     V4    10.0   .     S
V2     V8    10.0   1_545     S
V2     V16    10.0   .     S
V2     V22    10.0   .     S
V2     V19    10.0   1_556     S
V2     V29    10.0   1_556     S
V3     V32    10.0   1_654     S
V3     V22    10.0   1_554     S
V3     V5    10.0   1_545     S
V3     V13    10.0   1_655     S
V3     V27    10.0   1_645     S
V3     V31    10.0   1_655     S
V3     V21    10.0   .     S
V4     V31    10.0   1_655     S
V4     V21    10.0   .     S
V4     V6    10.0   1_545     S
V4     V14    10.0   1_655     S
V4     V28    10.0   1_645     S
V4     V32    10.0   1_655     S
V4     V22    10.0   .     S
V5     V24    10.0   1_554     S
V5     V28    10.0   1_654     S
V5     V3    10.0   1_565     S
V5     V8    10.0   1_554     S
V5     V9    10.0   1_655     S
V5     V23    10.0   .     S
V5     V17    10.0   .     S
V5     V27    10.0   1_655     S
V6     V23    10.0   .     S
V6     V27    10.0   1_655     S
V6     V4    10.0   1_565     S
V6     V7    10.0   .     S
V6     V10    10.0   1_655     S
V6     V24    10.0   .     S
V6     V18    10.0   .     S
V6     V28    10.0   1_655     S
V7     V25    10.0   .     S
V7     V17    10.0   .     S
V7     V1    10.0   1_565     S
V7     V11    10.0   .     S
V7     V18    10.0   .     S
V7     V26    10.0   .     S
V7     V30    10.0   1_565     S
V8     V26    10.0   .     S
V8     V18    10.0   .     S
V8     V2    10.0   1_565     S
V8     V5    10.0   1_556     S
V8     V12    10.0   .     S
V8     V17    10.0   1_556     S
V8     V25    10.0   1_556     S
V8     V29    10.0   1_566     S
V9     V28    10.0   1_554     S
V9     V24    10.0   1_454     S
V9     V5    10.0   1_455     S
V9     V13    10.0   .     S
V9     V12    10.0   1_554     S
V9     V23    10.0   1_455     S
V9     V27    10.0   .     S
V9     V25    10.0   .     S
V10     V27    10.0   .     S
V10     V23    10.0   1_455     S
V10     V6    10.0   1_455     S
V10     V14    10.0   .     S
V10     V11    10.0   .     S
V10     V24    10.0   1_455     S
V10     V28    10.0   .     S
V10     V26    10.0   .     S
V11     V25    10.0   .     S
V11     V17    10.0   .     S
V11     V15    10.0   .     S
V11     V18    10.0   .     S
V11     V20    10.0   .     S
V11     V26    10.0   .     S
V12     V26    10.0   .     S
V12     V18    10.0   .     S
V12     V9    10.0   1_556     S
V12     V16    10.0   .     S
V12     V17    10.0   1_556     S
V12     V19    10.0   1_556     S
V12     V25    10.0   1_556     S
V13     V32    10.0   1_554     S
V13     V22    10.0   1_454     S
V13     V3    10.0   1_455     S
V13     V15    10.0   .     S
V13     V31    10.0   .     S
V13     V23    10.0   1_455     S
V13     V21    10.0   1_455     S
V14     V31    10.0   .     S
V14     V21    10.0   1_455     S
V14     V4    10.0   1_455     S
V14     V16    10.0   .     S
V14     V32    10.0   .     S
V14     V24    10.0   1_455     S
V14     V22    10.0   1_455     S
V15     V19    10.0   .     S
V15     V29    10.0   .     S
V15     V31    10.0   .     S
V15     V30    10.0   .     S
V15     V20    10.0   .     S
V16     V20    10.0   .     S
V16     V30    10.0   .     S
V16     V32    10.0   .     S
V16     V29    10.0   1_556     S
V16     V19    10.0   1_556     S
V17     V23    10.0   .     S
V17     V19    10.0   .     S
V17     V25    10.0   .     S
V17     V8    10.0   1_554     S
V17     V12    10.0   1_554     S
V18     V24    10.0   .     S
V18     V20    10.0   .     S
V18     V26    10.0   .     S
V19     V22    10.0   1_554     S
V19     V29    10.0   .     S
V19     V12    10.0   1_554     S
V19     V16    10.0   1_554     S
V19     V2    10.0   1_554     S
V20     V21    10.0   .     S
V20     V30    10.0   .     S
V21     V14    10.0   1_655     S
V21     V23    10.0   .     S
V21     V31    10.0   1_655     S
V21     V13    10.0   1_655     S
V22     V13    10.0   1_656     S
V22     V3    10.0   1_556     S
V22     V19    10.0   1_556     S
V22     V24    10.0   .     S
V22     V32    10.0   1_655     S
V22     V14    10.0   1_655     S
V23     V10    10.0   1_655     S
V23     V27    10.0   1_655     S
V23     V9    10.0   1_655     S
V23     V13    10.0   1_655     S
V24     V5    10.0   1_556     S
V24     V9    10.0   1_656     S
V24     V28    10.0   1_655     S
V24     V10    10.0   1_655     S
V24     V14    10.0   1_655     S
V25     V27    10.0   .     S
V25     V29    10.0   1_565     S
V25     V12    10.0   1_554     S
V25     V8    10.0   1_554     S
V26     V28    10.0   .     S
V26     V30    10.0   1_565     S
V27     V6    10.0   1_455     S
V27     V31    10.0   1_565     S
V27     V23    10.0   1_455     S
V27     V5    10.0   1_455     S
V27     V3    10.0   1_465     S
V28     V5    10.0   1_456     S
V28     V9    10.0   1_556     S
V28     V32    10.0   1_565     S
V28     V24    10.0   1_455     S
V28     V6    10.0   1_455     S
V28     V4    10.0   1_465     S
V29     V25    10.0   1_545     S
V29     V32    10.0   1_554     S
V29     V16    10.0   1_554     S
V29     V8    10.0   1_544     S
V29     V2    10.0   1_554     S
V30     V26    10.0   1_545     S
V30     V31    10.0   .     S
V30     V7    10.0   1_545     S
V31     V4    10.0   1_455     S
V31     V27    10.0   1_545     S
V31     V21    10.0   1_455     S
V31     V3    10.0   1_455     S
V32     V3    10.0   1_456     S
V32     V13    10.0   1_556     S
V32     V29    10.0   1_556     S
V32     V28    10.0   1_545     S
V32     V22    10.0   1_455     S
V32     V4    10.0   1_455     S
