data_wfn
_audit_creation_date              2019-12-31
_audit_creation_method            'Pymatgen'
_symmetry_space_group_name_H-M    'P1'
_symmetry_Int_Tables_number       1
loop_
_symmetry_equiv_pos_as_xyz
  x,y,z
_cell_length_a                    38.8734
_cell_length_b                    38.8734
_cell_length_c                    37.7122
_cell_angle_alpha                 90.0
_cell_angle_beta                 90.0
_cell_angle_gamma                 90.0
loop_
_atom_site_label
_atom_site_type_symbol
_atom_site_fract_x
_atom_site_fract_y
_atom_site_fract_z
V1     V     0.1838   0.4853   0.2188
V2     V     0.1838   0.9853   0.2188
V3     V     0.6838   0.4853   0.2188
V4     V     0.6838   0.9853   0.2188
V5     V     0.3162   0.0147   0.7812
V6     V     0.3162   0.5147   0.7812
V7     V     0.8162   0.0147   0.7812
V8     V     0.8162   0.5147   0.7812
V9     V     0.3162   0.2647   0.2188
V10     V     0.3162   0.7647   0.2188
V11     V     0.8162   0.2647   0.2188
V12     V     0.8162   0.7647   0.2188
V13     V     0.1838   0.2353   0.7812
V14     V     0.1838   0.7353   0.7812
V15     V     0.6838   0.2353   0.7812
V16     V     0.6838   0.7353   0.7812
V17     V     0.3897   0.3088   0.4687
V18     V     0.3897   0.8088   0.4687
V19     V     0.8897   0.3088   0.4687
V20     V     0.8897   0.8088   0.4687
V21     V     0.3603   0.4412   0.0312
V22     V     0.3603   0.9412   0.0312
V23     V     0.8603   0.4412   0.0312
V24     V     0.8603   0.9412   0.0312
V25     V     0.3897   0.0588   0.5312
V26     V     0.3897   0.5588   0.5312
V27     V     0.8897   0.0588   0.5312
V28     V     0.8897   0.5588   0.5312
V29     V     0.3603   0.1912   0.9688
V30     V     0.3603   0.6912   0.9688
V31     V     0.8603   0.1912   0.9688
V32     V     0.8603   0.6912   0.9688
V33     V     0.1103   0.4412   0.4687
V34     V     0.1103   0.9412   0.4687
V35     V     0.6103   0.4412   0.4687
V36     V     0.6103   0.9412   0.4687
V37     V     0.1397   0.3088   0.0312
V38     V     0.1397   0.8088   0.0312
V39     V     0.6397   0.3088   0.0312
V40     V     0.6397   0.8088   0.0312
V41     V     0.1103   0.1912   0.5312
V42     V     0.1103   0.6912   0.5312
V43     V     0.6103   0.1912   0.5312
V44     V     0.6103   0.6912   0.5312
V45     V     0.1397   0.0588   0.9688
V46     V     0.1397   0.5588   0.9688
V47     V     0.6397   0.0588   0.9688
V48     V     0.6397   0.5588   0.9688
V49     V     0.4338   0.2353   0.7188
V50     V     0.4338   0.7353   0.7188
V51     V     0.9338   0.2353   0.7188
V52     V     0.9338   0.7353   0.7188
V53     V     0.0662   0.2647   0.2812
V54     V     0.0662   0.7647   0.2812
V55     V     0.5662   0.2647   0.2812
V56     V     0.5662   0.7647   0.2812
V57     V     0.0662   0.0147   0.7188
V58     V     0.0662   0.5147   0.7188
V59     V     0.5662   0.0147   0.7188
V60     V     0.5662   0.5147   0.7188
V61     V     0.4338   0.4853   0.2812
V62     V     0.4338   0.9853   0.2812
V63     V     0.9338   0.4853   0.2812
V64     V     0.9338   0.9853   0.2812
loop_
_geom_bond_atom_site_label_1
_geom_bond_atom_site_label_2
_geom_bond_distance
_geom_bond_site_symmetry_2
_ccdc_geom_bond_type
V1     V21    10.0   .     S
V1     V46    10.0   1_554     S
V1     V33    10.0   .     S
V1     V37    10.0   .     S
V1     V53    10.0   .     S
V1     V9    10.0   .     S
V1     V61    10.0   .     S
V1     V63    10.0   1_455     S
V2     V22    10.0   .     S
V2     V45    10.0   1_564     S
V2     V34    10.0   .     S
V2     V38    10.0   .     S
V2     V54    10.0   .     S
V2     V10    10.0   .     S
V2     V62    10.0   .     S
V2     V64    10.0   1_455     S
V3     V23    10.0   .     S
V3     V48    10.0   1_554     S
V3     V35    10.0   .     S
V3     V39    10.0   .     S
V3     V55    10.0   .     S
V3     V11    10.0   .     S
V3     V63    10.0   .     S
V3     V61    10.0   .     S
V4     V24    10.0   .     S
V4     V47    10.0   1_564     S
V4     V36    10.0   .     S
V4     V40    10.0   .     S
V4     V56    10.0   .     S
V4     V12    10.0   .     S
V4     V64    10.0   .     S
V4     V62    10.0   .     S
V5     V45    10.0   .     S
V5     V22    10.0   1_546     S
V5     V25    10.0   .     S
V5     V29    10.0   .     S
V5     V49    10.0   .     S
V5     V13    10.0   .     S
V5     V57    10.0   .     S
V5     V59    10.0   .     S
V6     V46    10.0   .     S
V6     V21    10.0   1_556     S
V6     V26    10.0   .     S
V6     V30    10.0   .     S
V6     V50    10.0   .     S
V6     V14    10.0   .     S
V6     V58    10.0   .     S
V6     V60    10.0   .     S
V7     V47    10.0   .     S
V7     V24    10.0   1_546     S
V7     V27    10.0   .     S
V7     V31    10.0   .     S
V7     V51    10.0   .     S
V7     V15    10.0   .     S
V7     V59    10.0   .     S
V7     V57    10.0   1_655     S
V8     V48    10.0   .     S
V8     V23    10.0   1_556     S
V8     V28    10.0   .     S
V8     V32    10.0   .     S
V8     V52    10.0   .     S
V8     V16    10.0   .     S
V8     V60    10.0   .     S
V8     V58    10.0   1_655     S
V9     V37    10.0   .     S
V9     V29    10.0   1_554     S
V9     V17    10.0   .     S
V9     V21    10.0   .     S
V9     V61    10.0   .     S
V9     V53    10.0   .     S
V9     V55    10.0   .     S
V10     V38    10.0   .     S
V10     V30    10.0   1_554     S
V10     V18    10.0   .     S
V10     V22    10.0   .     S
V10     V62    10.0   .     S
V10     V54    10.0   .     S
V10     V56    10.0   .     S
V11     V39    10.0   .     S
V11     V31    10.0   1_554     S
V11     V19    10.0   .     S
V11     V23    10.0   .     S
V11     V63    10.0   .     S
V11     V55    10.0   .     S
V11     V53    10.0   1_655     S
V12     V40    10.0   .     S
V12     V32    10.0   1_554     S
V12     V20    10.0   .     S
V12     V24    10.0   .     S
V12     V64    10.0   .     S
V12     V56    10.0   .     S
V12     V54    10.0   1_655     S
V13     V29    10.0   .     S
V13     V37    10.0   1_556     S
V13     V41    10.0   .     S
V13     V45    10.0   .     S
V13     V57    10.0   .     S
V13     V49    10.0   .     S
V13     V51    10.0   1_455     S
V14     V30    10.0   .     S
V14     V38    10.0   1_556     S
V14     V42    10.0   .     S
V14     V46    10.0   .     S
V14     V58    10.0   .     S
V14     V50    10.0   .     S
V14     V52    10.0   1_455     S
V15     V31    10.0   .     S
V15     V39    10.0   1_556     S
V15     V43    10.0   .     S
V15     V47    10.0   .     S
V15     V59    10.0   .     S
V15     V51    10.0   .     S
V15     V49    10.0   .     S
V16     V32    10.0   .     S
V16     V40    10.0   1_556     S
V16     V44    10.0   .     S
V16     V48    10.0   .     S
V16     V60    10.0   .     S
V16     V52    10.0   .     S
V16     V50    10.0   .     S
V17     V61    10.0   .     S
V17     V49    10.0   .     S
V17     V55    10.0   .     S
V17     V43    10.0   .     S
V17     V35    10.0   .     S
V17     V25    10.0   .     S
V17     V26    10.0   .     S
V18     V62    10.0   .     S
V18     V50    10.0   .     S
V18     V56    10.0   .     S
V18     V44    10.0   .     S
V18     V36    10.0   .     S
V18     V26    10.0   .     S
V18     V25    10.0   1_565     S
V19     V63    10.0   .     S
V19     V51    10.0   .     S
V19     V53    10.0   1_655     S
V19     V41    10.0   1_655     S
V19     V33    10.0   1_655     S
V19     V27    10.0   .     S
V19     V28    10.0   .     S
V20     V64    10.0   .     S
V20     V52    10.0   .     S
V20     V54    10.0   1_655     S
V20     V42    10.0   1_655     S
V20     V34    10.0   1_655     S
V20     V28    10.0   .     S
V20     V27    10.0   1_565     S
V21     V6    10.0   1_554     S
V21     V46    10.0   1_554     S
V21     V61    10.0   .     S
V21     V37    10.0   .     S
V21     V30    10.0   1_554     S
V21     V29    10.0   1_554     S
V22     V5    10.0   1_564     S
V22     V45    10.0   1_564     S
V22     V62    10.0   .     S
V22     V38    10.0   .     S
V22     V29    10.0   1_564     S
V22     V30    10.0   1_554     S
V23     V8    10.0   1_554     S
V23     V48    10.0   1_554     S
V23     V63    10.0   .     S
V23     V39    10.0   .     S
V23     V32    10.0   1_554     S
V23     V31    10.0   1_554     S
V24     V7    10.0   1_564     S
V24     V47    10.0   1_564     S
V24     V64    10.0   .     S
V24     V40    10.0   .     S
V24     V31    10.0   1_564     S
V24     V32    10.0   1_554     S
V25     V49    10.0   .     S
V25     V59    10.0   .     S
V25     V62    10.0   1_545     S
V25     V36    10.0   1_545     S
V25     V43    10.0   .     S
V25     V18    10.0   1_545     S
V26     V50    10.0   .     S
V26     V60    10.0   .     S
V26     V61    10.0   .     S
V26     V35    10.0   .     S
V26     V44    10.0   .     S
V27     V51    10.0   .     S
V27     V57    10.0   1_655     S
V27     V64    10.0   1_545     S
V27     V34    10.0   1_645     S
V27     V41    10.0   1_655     S
V27     V20    10.0   1_545     S
V28     V52    10.0   .     S
V28     V58    10.0   1_655     S
V28     V63    10.0   .     S
V28     V33    10.0   1_655     S
V28     V42    10.0   1_655     S
V29     V9    10.0   1_556     S
V29     V37    10.0   1_556     S
V29     V49    10.0   .     S
V29     V45    10.0   .     S
V29     V22    10.0   1_546     S
V29     V21    10.0   1_556     S
V30     V10    10.0   1_556     S
V30     V38    10.0   1_556     S
V30     V50    10.0   .     S
V30     V46    10.0   .     S
V30     V21    10.0   1_556     S
V30     V22    10.0   1_556     S
V31     V11    10.0   1_556     S
V31     V39    10.0   1_556     S
V31     V51    10.0   .     S
V31     V47    10.0   .     S
V31     V24    10.0   1_546     S
V31     V23    10.0   1_556     S
V32     V12    10.0   1_556     S
V32     V40    10.0   1_556     S
V32     V52    10.0   .     S
V32     V48    10.0   .     S
V32     V23    10.0   1_556     S
V32     V24    10.0   1_556     S
V33     V53    10.0   .     S
V33     V58    10.0   .     S
V33     V63    10.0   1_455     S
V33     V28    10.0   1_455     S
V33     V19    10.0   1_455     S
V33     V41    10.0   .     S
V33     V42    10.0   .     S
V34     V54    10.0   .     S
V34     V57    10.0   1_565     S
V34     V64    10.0   1_455     S
V34     V27    10.0   1_465     S
V34     V20    10.0   1_455     S
V34     V42    10.0   .     S
V34     V41    10.0   1_565     S
V35     V55    10.0   .     S
V35     V60    10.0   .     S
V35     V61    10.0   .     S
V35     V43    10.0   .     S
V35     V44    10.0   .     S
V36     V56    10.0   .     S
V36     V59    10.0   1_565     S
V36     V62    10.0   .     S
V36     V25    10.0   1_565     S
V36     V44    10.0   .     S
V36     V43    10.0   1_565     S
V37     V13    10.0   1_554     S
V37     V29    10.0   1_554     S
V37     V53    10.0   .     S
V37     V45    10.0   1_554     S
V37     V46    10.0   1_554     S
V38     V14    10.0   1_554     S
V38     V30    10.0   1_554     S
V38     V54    10.0   .     S
V38     V46    10.0   1_554     S
V38     V45    10.0   1_564     S
V39     V15    10.0   1_554     S
V39     V31    10.0   1_554     S
V39     V55    10.0   .     S
V39     V47    10.0   1_554     S
V39     V48    10.0   1_554     S
V40     V16    10.0   1_554     S
V40     V32    10.0   1_554     S
V40     V56    10.0   .     S
V40     V48    10.0   1_554     S
V40     V47    10.0   1_564     S
V41     V57    10.0   .     S
V41     V51    10.0   1_455     S
V41     V53    10.0   .     S
V41     V19    10.0   1_455     S
V41     V27    10.0   1_455     S
V41     V34    10.0   1_545     S
V42     V58    10.0   .     S
V42     V52    10.0   1_455     S
V42     V54    10.0   .     S
V42     V20    10.0   1_455     S
V42     V28    10.0   1_455     S
V43     V59    10.0   .     S
V43     V49    10.0   .     S
V43     V55    10.0   .     S
V43     V36    10.0   1_545     S
V44     V60    10.0   .     S
V44     V50    10.0   .     S
V44     V56    10.0   .     S
V45     V2    10.0   1_546     S
V45     V22    10.0   1_546     S
V45     V57    10.0   .     S
V45     V37    10.0   1_556     S
V45     V38    10.0   1_546     S
V46     V1    10.0   1_556     S
V46     V21    10.0   1_556     S
V46     V58    10.0   .     S
V46     V38    10.0   1_556     S
V46     V37    10.0   1_556     S
V47     V4    10.0   1_546     S
V47     V24    10.0   1_546     S
V47     V59    10.0   .     S
V47     V39    10.0   1_556     S
V47     V40    10.0   1_546     S
V48     V3    10.0   1_556     S
V48     V23    10.0   1_556     S
V48     V60    10.0   .     S
V48     V40    10.0   1_556     S
V48     V39    10.0   1_556     S
V49     V59    10.0   .     S
V50     V60    10.0   .     S
V51     V41    10.0   1_655     S
V51     V57    10.0   1_655     S
V51     V13    10.0   1_655     S
V52     V42    10.0   1_655     S
V52     V58    10.0   1_655     S
V52     V14    10.0   1_655     S
V53     V19    10.0   1_455     S
V53     V63    10.0   1_455     S
V53     V11    10.0   1_455     S
V54     V20    10.0   1_455     S
V54     V64    10.0   1_455     S
V54     V12    10.0   1_455     S
V55     V61    10.0   .     S
V56     V62    10.0   .     S
V57     V27    10.0   1_455     S
V57     V34    10.0   1_545     S
V57     V51    10.0   1_455     S
V57     V7    10.0   1_455     S
V58     V28    10.0   1_455     S
V58     V52    10.0   1_455     S
V58     V8    10.0   1_455     S
V59     V36    10.0   1_545     S
V62     V25    10.0   1_565     S
V63     V33    10.0   1_655     S
V63     V53    10.0   1_655     S
V63     V1    10.0   1_655     S
V64     V34    10.0   1_655     S
V64     V27    10.0   1_565     S
V64     V54    10.0   1_655     S
V64     V2    10.0   1_655     S
