data_wfo
_audit_creation_date              2019-12-31
_audit_creation_method            'Pymatgen'
_symmetry_space_group_name_H-M    'P1'
_symmetry_Int_Tables_number       1
loop_
_symmetry_equiv_pos_as_xyz
  x,y,z
_cell_length_a                    37.0862
_cell_length_b                    37.0862
_cell_length_c                    38.3906
_cell_angle_alpha                 90.0
_cell_angle_beta                 90.0
_cell_angle_gamma                 90.0
loop_
_atom_site_label
_atom_site_type_symbol
_atom_site_fract_x
_atom_site_fract_y
_atom_site_fract_z
V1     V     0.0727   0.0115   0.7988
V2     V     0.0727   0.5115   0.7988
V3     V     0.5727   0.0115   0.7988
V4     V     0.5727   0.5115   0.7988
V5     V     0.1773   0.2385   0.7012
V6     V     0.1773   0.7385   0.7012
V7     V     0.6773   0.2385   0.7012
V8     V     0.6773   0.7385   0.7012
V9     V     0.1365   0.3023   0.9512
V10     V     0.1365   0.8023   0.9512
V11     V     0.6365   0.3023   0.9512
V12     V     0.6365   0.8023   0.9512
V13     V     0.3635   0.1977   0.0488
V14     V     0.3635   0.6977   0.0488
V15     V     0.8635   0.1977   0.0488
V16     V     0.8635   0.6977   0.0488
V17     V     0.3635   0.4477   0.9512
V18     V     0.3635   0.9477   0.9512
V19     V     0.8635   0.4477   0.9512
V20     V     0.8635   0.9477   0.9512
V21     V     0.1365   0.0523   0.0488
V22     V     0.1365   0.5523   0.0488
V23     V     0.6365   0.0523   0.0488
V24     V     0.6365   0.5523   0.0488
V25     V     0.3227   0.2615   0.2988
V26     V     0.3227   0.7615   0.2988
V27     V     0.8227   0.2615   0.2988
V28     V     0.8227   0.7615   0.2988
V29     V     0.4273   0.4885   0.2012
V30     V     0.4273   0.9885   0.2012
V31     V     0.9273   0.4885   0.2012
V32     V     0.9273   0.9885   0.2012
V33     V     0.1135   0.1977   0.4512
V34     V     0.1135   0.6977   0.4512
V35     V     0.6135   0.1977   0.4512
V36     V     0.6135   0.6977   0.4512
V37     V     0.3865   0.3023   0.5488
V38     V     0.3865   0.8023   0.5488
V39     V     0.8865   0.3023   0.5488
V40     V     0.8865   0.8023   0.5488
V41     V     0.4273   0.2385   0.7988
V42     V     0.4273   0.7385   0.7988
V43     V     0.9273   0.2385   0.7988
V44     V     0.9273   0.7385   0.7988
V45     V     0.3227   0.0115   0.7012
V46     V     0.3227   0.5115   0.7012
V47     V     0.8227   0.0115   0.7012
V48     V     0.8227   0.5115   0.7012
V49     V     0.0727   0.2615   0.2012
V50     V     0.0727   0.7615   0.2012
V51     V     0.5727   0.2615   0.2012
V52     V     0.5727   0.7615   0.2012
V53     V     0.1773   0.4885   0.2988
V54     V     0.1773   0.9885   0.2988
V55     V     0.6773   0.4885   0.2988
V56     V     0.6773   0.9885   0.2988
V57     V     0.3865   0.0523   0.4512
V58     V     0.3865   0.5523   0.4512
V59     V     0.8865   0.0523   0.4512
V60     V     0.8865   0.5523   0.4512
V61     V     0.1135   0.4477   0.5488
V62     V     0.1135   0.9477   0.5488
V63     V     0.6135   0.4477   0.5488
V64     V     0.6135   0.9477   0.5488
loop_
_geom_bond_atom_site_label_1
_geom_bond_atom_site_label_2
_geom_bond_distance
_geom_bond_site_symmetry_2
_ccdc_geom_bond_type
V1     V43    10.0   1_455     S
V1     V47    10.0   1_455     S
V1     V10    10.0   1_545     S
V1     V21    10.0   1_556     S
V1     V5    10.0   .     S
V1     V20    10.0   1_445     S
V1     V45    10.0   .     S
V1     V62    10.0   1_545     S
V2     V44    10.0   1_455     S
V2     V48    10.0   1_455     S
V2     V9    10.0   .     S
V2     V22    10.0   1_556     S
V2     V6    10.0   .     S
V2     V19    10.0   1_455     S
V2     V46    10.0   .     S
V2     V61    10.0   .     S
V3     V41    10.0   .     S
V3     V45    10.0   .     S
V3     V12    10.0   1_545     S
V3     V23    10.0   1_556     S
V3     V7    10.0   .     S
V3     V18    10.0   1_545     S
V3     V47    10.0   .     S
V3     V64    10.0   1_545     S
V4     V42    10.0   .     S
V4     V46    10.0   .     S
V4     V11    10.0   .     S
V4     V24    10.0   1_556     S
V4     V8    10.0   .     S
V4     V17    10.0   .     S
V4     V48    10.0   .     S
V4     V63    10.0   .     S
V5     V43    10.0   1_455     S
V5     V61    10.0   .     S
V5     V33    10.0   .     S
V5     V9    10.0   .     S
V5     V37    10.0   .     S
V5     V45    10.0   .     S
V5     V41    10.0   .     S
V6     V44    10.0   1_455     S
V6     V62    10.0   .     S
V6     V34    10.0   .     S
V6     V10    10.0   .     S
V6     V38    10.0   .     S
V6     V46    10.0   .     S
V6     V42    10.0   .     S
V7     V41    10.0   .     S
V7     V63    10.0   .     S
V7     V35    10.0   .     S
V7     V11    10.0   .     S
V7     V39    10.0   .     S
V7     V47    10.0   .     S
V7     V43    10.0   .     S
V8     V42    10.0   .     S
V8     V64    10.0   .     S
V8     V36    10.0   .     S
V8     V12    10.0   .     S
V8     V40    10.0   .     S
V8     V48    10.0   .     S
V8     V44    10.0   .     S
V9     V17    10.0   .     S
V9     V22    10.0   1_556     S
V9     V21    10.0   1_556     S
V9     V43    10.0   1_455     S
V9     V13    10.0   1_556     S
V9     V49    10.0   1_556     S
V10     V18    10.0   .     S
V10     V21    10.0   1_566     S
V10     V1    10.0   1_565     S
V10     V22    10.0   1_556     S
V10     V44    10.0   1_455     S
V10     V14    10.0   1_556     S
V10     V50    10.0   1_556     S
V11     V19    10.0   .     S
V11     V24    10.0   1_556     S
V11     V23    10.0   1_556     S
V11     V41    10.0   .     S
V11     V15    10.0   1_556     S
V11     V51    10.0   1_556     S
V12     V20    10.0   .     S
V12     V23    10.0   1_566     S
V12     V3    10.0   1_565     S
V12     V24    10.0   1_556     S
V12     V42    10.0   .     S
V12     V16    10.0   1_556     S
V12     V52    10.0   1_556     S
V13     V17    10.0   1_554     S
V13     V21    10.0   .     S
V13     V18    10.0   1_544     S
V13     V51    10.0   .     S
V13     V25    10.0   .     S
V13     V9    10.0   1_554     S
V13     V30    10.0   1_545     S
V13     V41    10.0   1_554     S
V14     V18    10.0   1_554     S
V14     V22    10.0   .     S
V14     V17    10.0   1_554     S
V14     V52    10.0   .     S
V14     V26    10.0   .     S
V14     V10    10.0   1_554     S
V14     V29    10.0   .     S
V14     V42    10.0   1_554     S
V15     V19    10.0   1_554     S
V15     V23    10.0   .     S
V15     V20    10.0   1_544     S
V15     V49    10.0   1_655     S
V15     V27    10.0   .     S
V15     V11    10.0   1_554     S
V15     V32    10.0   1_545     S
V15     V43    10.0   1_554     S
V16     V20    10.0   1_554     S
V16     V24    10.0   .     S
V16     V19    10.0   1_554     S
V16     V50    10.0   1_655     S
V16     V28    10.0   .     S
V16     V12    10.0   1_554     S
V16     V31    10.0   .     S
V16     V44    10.0   1_554     S
V17     V13    10.0   1_556     S
V17     V14    10.0   1_556     S
V17     V46    10.0   .     S
V17     V22    10.0   1_556     S
V17     V29    10.0   1_556     S
V17     V41    10.0   .     S
V18     V14    10.0   1_556     S
V18     V13    10.0   1_566     S
V18     V3    10.0   1_565     S
V18     V45    10.0   1_565     S
V18     V21    10.0   1_566     S
V18     V30    10.0   1_556     S
V18     V42    10.0   .     S
V19     V15    10.0   1_556     S
V19     V16    10.0   1_556     S
V19     V2    10.0   1_655     S
V19     V48    10.0   .     S
V19     V24    10.0   1_556     S
V19     V31    10.0   1_556     S
V19     V43    10.0   .     S
V20     V16    10.0   1_556     S
V20     V15    10.0   1_566     S
V20     V1    10.0   1_665     S
V20     V47    10.0   1_565     S
V20     V23    10.0   1_566     S
V20     V32    10.0   1_556     S
V20     V44    10.0   .     S
V21     V10    10.0   1_544     S
V21     V1    10.0   1_554     S
V21     V9    10.0   1_554     S
V21     V32    10.0   1_445     S
V21     V54    10.0   1_545     S
V21     V18    10.0   1_544     S
V21     V49    10.0   .     S
V22     V9    10.0   1_554     S
V22     V2    10.0   1_554     S
V22     V10    10.0   1_554     S
V22     V31    10.0   1_455     S
V22     V53    10.0   .     S
V22     V17    10.0   1_554     S
V22     V50    10.0   .     S
V23     V12    10.0   1_544     S
V23     V3    10.0   1_554     S
V23     V11    10.0   1_554     S
V23     V30    10.0   1_545     S
V23     V56    10.0   1_545     S
V23     V20    10.0   1_544     S
V23     V51    10.0   .     S
V24     V11    10.0   1_554     S
V24     V4    10.0   1_554     S
V24     V12    10.0   1_554     S
V24     V29    10.0   .     S
V24     V55    10.0   .     S
V24     V19    10.0   1_554     S
V24     V52    10.0   .     S
V25     V51    10.0   .     S
V25     V53    10.0   .     S
V25     V49    10.0   .     S
V25     V57    10.0   .     S
V25     V37    10.0   .     S
V25     V29    10.0   .     S
V25     V33    10.0   .     S
V26     V52    10.0   .     S
V26     V54    10.0   .     S
V26     V50    10.0   .     S
V26     V58    10.0   .     S
V26     V38    10.0   .     S
V26     V30    10.0   .     S
V26     V34    10.0   .     S
V27     V49    10.0   1_655     S
V27     V55    10.0   .     S
V27     V51    10.0   .     S
V27     V59    10.0   .     S
V27     V39    10.0   .     S
V27     V31    10.0   .     S
V27     V35    10.0   .     S
V28     V50    10.0   1_655     S
V28     V56    10.0   .     S
V28     V52    10.0   .     S
V28     V60    10.0   .     S
V28     V40    10.0   .     S
V28     V32    10.0   .     S
V28     V36    10.0   .     S
V29     V51    10.0   .     S
V29     V55    10.0   .     S
V29     V53    10.0   .     S
V29     V17    10.0   1_554     S
V29     V58    10.0   .     S
V30     V52    10.0   .     S
V30     V56    10.0   .     S
V30     V23    10.0   1_565     S
V30     V54    10.0   .     S
V30     V13    10.0   1_565     S
V30     V18    10.0   1_554     S
V30     V57    10.0   1_565     S
V31     V49    10.0   1_655     S
V31     V53    10.0   1_655     S
V31     V22    10.0   1_655     S
V31     V55    10.0   .     S
V31     V19    10.0   1_554     S
V31     V60    10.0   .     S
V32     V50    10.0   1_655     S
V32     V54    10.0   1_655     S
V32     V21    10.0   1_665     S
V32     V56    10.0   .     S
V32     V15    10.0   1_565     S
V32     V20    10.0   1_554     S
V32     V59    10.0   1_565     S
V33     V59    10.0   1_455     S
V33     V62    10.0   1_545     S
V33     V61    10.0   .     S
V33     V49    10.0   .     S
V33     V39    10.0   1_455     S
V33     V54    10.0   1_545     S
V34     V60    10.0   1_455     S
V34     V61    10.0   .     S
V34     V62    10.0   .     S
V34     V50    10.0   .     S
V34     V40    10.0   1_455     S
V34     V53    10.0   .     S
V35     V57    10.0   .     S
V35     V64    10.0   1_545     S
V35     V63    10.0   .     S
V35     V51    10.0   .     S
V35     V37    10.0   .     S
V35     V56    10.0   1_545     S
V36     V58    10.0   .     S
V36     V63    10.0   .     S
V36     V64    10.0   .     S
V36     V52    10.0   .     S
V36     V38    10.0   .     S
V36     V55    10.0   .     S
V37     V57    10.0   .     S
V37     V63    10.0   .     S
V37     V58    10.0   .     S
V37     V41    10.0   .     S
V37     V46    10.0   .     S
V38     V58    10.0   .     S
V38     V64    10.0   .     S
V38     V57    10.0   1_565     S
V38     V42    10.0   .     S
V38     V45    10.0   1_565     S
V39     V59    10.0   .     S
V39     V61    10.0   1_655     S
V39     V60    10.0   .     S
V39     V43    10.0   .     S
V39     V33    10.0   1_655     S
V39     V48    10.0   .     S
V40     V60    10.0   .     S
V40     V62    10.0   1_655     S
V40     V59    10.0   1_565     S
V40     V44    10.0   .     S
V40     V34    10.0   1_655     S
V40     V47    10.0   1_565     S
V41     V13    10.0   1_556     S
V41     V45    10.0   .     S
V42     V14    10.0   1_556     S
V42     V46    10.0   .     S
V43     V1    10.0   1_655     S
V43     V5    10.0   1_655     S
V43     V9    10.0   1_655     S
V43     V15    10.0   1_556     S
V43     V47    10.0   .     S
V44     V2    10.0   1_655     S
V44     V6    10.0   1_655     S
V44     V10    10.0   1_655     S
V44     V16    10.0   1_556     S
V44     V48    10.0   .     S
V45     V18    10.0   1_545     S
V45     V38    10.0   1_545     S
V45     V57    10.0   .     S
V45     V62    10.0   1_545     S
V46     V58    10.0   .     S
V46     V61    10.0   .     S
V47     V1    10.0   1_655     S
V47     V20    10.0   1_545     S
V47     V40    10.0   1_545     S
V47     V59    10.0   .     S
V47     V64    10.0   1_545     S
V48     V2    10.0   1_655     S
V48     V60    10.0   .     S
V48     V63    10.0   .     S
V49     V31    10.0   1_455     S
V49     V27    10.0   1_455     S
V49     V15    10.0   1_455     S
V49     V9    10.0   1_554     S
V49     V53    10.0   .     S
V50     V32    10.0   1_455     S
V50     V28    10.0   1_455     S
V50     V16    10.0   1_455     S
V50     V10    10.0   1_554     S
V50     V54    10.0   .     S
V51     V11    10.0   1_554     S
V51     V55    10.0   .     S
V52     V12    10.0   1_554     S
V52     V56    10.0   .     S
V53     V31    10.0   1_455     S
V53     V61    10.0   .     S
V53     V58    10.0   .     S
V54     V32    10.0   1_455     S
V54     V21    10.0   1_565     S
V54     V33    10.0   1_565     S
V54     V62    10.0   .     S
V54     V57    10.0   1_565     S
V55     V63    10.0   .     S
V55     V60    10.0   .     S
V56     V23    10.0   1_565     S
V56     V35    10.0   1_565     S
V56     V64    10.0   .     S
V56     V59    10.0   1_565     S
V57     V38    10.0   1_545     S
V57     V54    10.0   1_545     S
V57     V30    10.0   1_545     S
V57     V64    10.0   1_545     S
V58     V63    10.0   .     S
V59     V33    10.0   1_655     S
V59     V40    10.0   1_545     S
V59     V56    10.0   1_545     S
V59     V32    10.0   1_545     S
V59     V62    10.0   1_645     S
V60     V34    10.0   1_655     S
V60     V61    10.0   1_655     S
V61     V39    10.0   1_455     S
V61     V60    10.0   1_455     S
V62     V33    10.0   1_565     S
V62     V40    10.0   1_455     S
V62     V45    10.0   1_565     S
V62     V1    10.0   1_565     S
V62     V59    10.0   1_465     S
V64     V35    10.0   1_565     S
V64     V47    10.0   1_565     S
V64     V3    10.0   1_565     S
V64     V57    10.0   1_565     S
