data_wfp
_audit_creation_date              2019-12-31
_audit_creation_method            'Pymatgen'
_symmetry_space_group_name_H-M    'P1'
_symmetry_Int_Tables_number       1
loop_
_symmetry_equiv_pos_as_xyz
  x,y,z
_cell_length_a                    37.0836
_cell_length_b                    37.0836
_cell_length_c                    39.0203
_cell_angle_alpha                 90.0
_cell_angle_beta                 90.0
_cell_angle_gamma                 90.0
loop_
_atom_site_label
_atom_site_type_symbol
_atom_site_fract_x
_atom_site_fract_y
_atom_site_fract_z
V1     V     0.1547   0.4703   0.3361
V2     V     0.1547   0.9703   0.3361
V3     V     0.6547   0.4703   0.3361
V4     V     0.6547   0.9703   0.3361
V5     V     0.0953   0.2797   0.1639
V6     V     0.0953   0.7797   0.1639
V7     V     0.5953   0.2797   0.1639
V8     V     0.5953   0.7797   0.1639
V9     V     0.4047   0.2797   0.5861
V10     V     0.4047   0.7797   0.5861
V11     V     0.9047   0.2797   0.5861
V12     V     0.9047   0.7797   0.5861
V13     V     0.0953   0.2203   0.4139
V14     V     0.0953   0.7203   0.4139
V15     V     0.5953   0.2203   0.4139
V16     V     0.5953   0.7203   0.4139
V17     V     0.4047   0.4703   0.1639
V18     V     0.4047   0.9703   0.1639
V19     V     0.9047   0.4703   0.1639
V20     V     0.9047   0.9703   0.1639
V21     V     0.3453   0.2797   0.3361
V22     V     0.3453   0.7797   0.3361
V23     V     0.8453   0.2797   0.3361
V24     V     0.8453   0.7797   0.3361
V25     V     0.4047   0.0297   0.4139
V26     V     0.4047   0.5297   0.4139
V27     V     0.9047   0.0297   0.4139
V28     V     0.9047   0.5297   0.4139
V29     V     0.0953   0.4703   0.5861
V30     V     0.0953   0.9703   0.5861
V31     V     0.5953   0.4703   0.5861
V32     V     0.5953   0.9703   0.5861
V33     V     0.3453   0.2203   0.0861
V34     V     0.3453   0.7203   0.0861
V35     V     0.8453   0.2203   0.0861
V36     V     0.8453   0.7203   0.0861
V37     V     0.1547   0.2797   0.9139
V38     V     0.1547   0.7797   0.9139
V39     V     0.6547   0.2797   0.9139
V40     V     0.6547   0.7797   0.9139
V41     V     0.1547   0.0297   0.0861
V42     V     0.1547   0.5297   0.0861
V43     V     0.6547   0.0297   0.0861
V44     V     0.6547   0.5297   0.0861
V45     V     0.3453   0.4703   0.9139
V46     V     0.3453   0.9703   0.9139
V47     V     0.8453   0.4703   0.9139
V48     V     0.8453   0.9703   0.9139
V49     V     0.0953   0.0297   0.8361
V50     V     0.0953   0.5297   0.8361
V51     V     0.5953   0.0297   0.8361
V52     V     0.5953   0.5297   0.8361
V53     V     0.1547   0.2203   0.6639
V54     V     0.1547   0.7203   0.6639
V55     V     0.6547   0.2203   0.6639
V56     V     0.6547   0.7203   0.6639
V57     V     0.4047   0.2203   0.8361
V58     V     0.4047   0.7203   0.8361
V59     V     0.9047   0.2203   0.8361
V60     V     0.9047   0.7203   0.8361
V61     V     0.3453   0.0297   0.6639
V62     V     0.3453   0.5297   0.6639
V63     V     0.8453   0.0297   0.6639
V64     V     0.8453   0.5297   0.6639
loop_
_geom_bond_atom_site_label_1
_geom_bond_atom_site_label_2
_geom_bond_distance
_geom_bond_site_symmetry_2
_ccdc_geom_bond_type
V1     V5    10.0   .     S
V1     V13    10.0   .     S
V1     V28    10.0   1_455     S
V1     V29    10.0   .     S
V1     V42    10.0   .     S
V1     V26    10.0   .     S
V1     V14    10.0   .     S
V1     V21    10.0   .     S
V2     V6    10.0   .     S
V2     V14    10.0   .     S
V2     V27    10.0   1_465     S
V2     V30    10.0   .     S
V2     V41    10.0   1_565     S
V2     V25    10.0   1_565     S
V2     V13    10.0   1_565     S
V2     V22    10.0   .     S
V3     V7    10.0   .     S
V3     V15    10.0   .     S
V3     V26    10.0   .     S
V3     V31    10.0   .     S
V3     V44    10.0   .     S
V3     V28    10.0   .     S
V3     V16    10.0   .     S
V3     V23    10.0   .     S
V4     V8    10.0   .     S
V4     V16    10.0   .     S
V4     V25    10.0   1_565     S
V4     V32    10.0   .     S
V4     V43    10.0   1_565     S
V4     V27    10.0   1_565     S
V4     V15    10.0   1_565     S
V4     V24    10.0   .     S
V5     V33    10.0   .     S
V5     V37    10.0   1_554     S
V5     V13    10.0   .     S
V5     V42    10.0   .     S
V5     V41    10.0   .     S
V5     V19    10.0   1_455     S
V5     V35    10.0   1_455     S
V6     V34    10.0   .     S
V6     V38    10.0   1_554     S
V6     V14    10.0   .     S
V6     V41    10.0   1_565     S
V6     V42    10.0   .     S
V6     V20    10.0   1_455     S
V6     V36    10.0   1_455     S
V7     V35    10.0   .     S
V7     V39    10.0   1_554     S
V7     V15    10.0   .     S
V7     V44    10.0   .     S
V7     V43    10.0   .     S
V7     V17    10.0   .     S
V7     V33    10.0   .     S
V8     V36    10.0   .     S
V8     V40    10.0   1_554     S
V8     V16    10.0   .     S
V8     V43    10.0   1_565     S
V8     V44    10.0   .     S
V8     V18    10.0   .     S
V8     V34    10.0   .     S
V9     V61    10.0   .     S
V9     V57    10.0   .     S
V9     V21    10.0   .     S
V9     V62    10.0   .     S
V9     V31    10.0   .     S
V9     V55    10.0   .     S
V9     V15    10.0   .     S
V9     V53    10.0   .     S
V10     V62    10.0   .     S
V10     V58    10.0   .     S
V10     V22    10.0   .     S
V10     V61    10.0   1_565     S
V10     V32    10.0   .     S
V10     V56    10.0   .     S
V10     V16    10.0   .     S
V10     V54    10.0   .     S
V11     V63    10.0   .     S
V11     V59    10.0   .     S
V11     V23    10.0   .     S
V11     V64    10.0   .     S
V11     V29    10.0   1_655     S
V11     V53    10.0   1_655     S
V11     V13    10.0   1_655     S
V11     V55    10.0   .     S
V12     V64    10.0   .     S
V12     V60    10.0   .     S
V12     V24    10.0   .     S
V12     V63    10.0   1_565     S
V12     V30    10.0   1_655     S
V12     V54    10.0   1_655     S
V12     V14    10.0   1_655     S
V12     V56    10.0   .     S
V13     V23    10.0   1_455     S
V13     V53    10.0   .     S
V13     V11    10.0   1_455     S
V13     V27    10.0   1_455     S
V13     V21    10.0   .     S
V13     V2    10.0   1_545     S
V14     V24    10.0   1_455     S
V14     V54    10.0   .     S
V14     V12    10.0   1_455     S
V14     V28    10.0   1_455     S
V14     V22    10.0   .     S
V15     V21    10.0   .     S
V15     V55    10.0   .     S
V15     V25    10.0   .     S
V15     V23    10.0   .     S
V15     V4    10.0   1_545     S
V16     V22    10.0   .     S
V16     V56    10.0   .     S
V16     V26    10.0   .     S
V16     V24    10.0   .     S
V17     V42    10.0   .     S
V17     V45    10.0   1_554     S
V17     V33    10.0   .     S
V17     V21    10.0   .     S
V17     V26    10.0   .     S
V17     V44    10.0   .     S
V17     V34    10.0   .     S
V18     V41    10.0   1_565     S
V18     V46    10.0   1_554     S
V18     V34    10.0   .     S
V18     V22    10.0   .     S
V18     V25    10.0   1_565     S
V18     V43    10.0   1_565     S
V18     V33    10.0   1_565     S
V19     V44    10.0   .     S
V19     V47    10.0   1_554     S
V19     V35    10.0   .     S
V19     V23    10.0   .     S
V19     V28    10.0   .     S
V19     V42    10.0   1_655     S
V19     V5    10.0   1_655     S
V19     V36    10.0   .     S
V20     V43    10.0   1_565     S
V20     V48    10.0   1_554     S
V20     V36    10.0   .     S
V20     V24    10.0   .     S
V20     V27    10.0   1_565     S
V20     V41    10.0   1_665     S
V20     V6    10.0   1_655     S
V20     V35    10.0   1_565     S
V21     V33    10.0   .     S
V21     V26    10.0   .     S
V21     V25    10.0   .     S
V22     V34    10.0   .     S
V22     V25    10.0   1_565     S
V22     V26    10.0   .     S
V23     V35    10.0   .     S
V23     V13    10.0   1_655     S
V23     V28    10.0   .     S
V23     V27    10.0   .     S
V24     V36    10.0   .     S
V24     V14    10.0   1_655     S
V24     V27    10.0   1_565     S
V24     V28    10.0   .     S
V25     V61    10.0   .     S
V25     V4    10.0   1_545     S
V25     V22    10.0   1_545     S
V25     V18    10.0   1_545     S
V25     V32    10.0   1_545     S
V25     V2    10.0   1_545     S
V26     V62    10.0   .     S
V26     V31    10.0   .     S
V27     V63    10.0   .     S
V27     V2    10.0   1_645     S
V27     V24    10.0   1_545     S
V27     V20    10.0   1_545     S
V27     V13    10.0   1_655     S
V27     V30    10.0   1_645     S
V27     V4    10.0   1_545     S
V28     V64    10.0   .     S
V28     V1    10.0   1_655     S
V28     V14    10.0   1_655     S
V28     V29    10.0   1_655     S
V29     V54    10.0   .     S
V29     V50    10.0   .     S
V29     V64    10.0   1_455     S
V29     V11    10.0   1_455     S
V29     V28    10.0   1_455     S
V29     V53    10.0   .     S
V29     V62    10.0   .     S
V30     V53    10.0   1_565     S
V30     V49    10.0   1_565     S
V30     V63    10.0   1_465     S
V30     V12    10.0   1_455     S
V30     V27    10.0   1_465     S
V30     V54    10.0   .     S
V30     V61    10.0   1_565     S
V31     V56    10.0   .     S
V31     V52    10.0   .     S
V31     V62    10.0   .     S
V31     V55    10.0   .     S
V31     V64    10.0   .     S
V32     V55    10.0   1_565     S
V32     V51    10.0   1_565     S
V32     V61    10.0   1_565     S
V32     V25    10.0   1_565     S
V32     V56    10.0   .     S
V32     V63    10.0   1_565     S
V33     V37    10.0   1_554     S
V33     V57    10.0   1_554     S
V33     V41    10.0   .     S
V33     V18    10.0   1_545     S
V34     V38    10.0   1_554     S
V34     V58    10.0   1_554     S
V34     V42    10.0   .     S
V35     V39    10.0   1_554     S
V35     V59    10.0   1_554     S
V35     V43    10.0   .     S
V35     V5    10.0   1_655     S
V35     V20    10.0   1_545     S
V36     V40    10.0   1_554     S
V36     V60    10.0   1_554     S
V36     V44    10.0   .     S
V36     V6    10.0   1_655     S
V37     V5    10.0   1_556     S
V37     V33    10.0   1_556     S
V37     V57    10.0   .     S
V37     V49    10.0   .     S
V37     V53    10.0   .     S
V37     V59    10.0   1_455     S
V37     V50    10.0   .     S
V37     V45    10.0   .     S
V38     V6    10.0   1_556     S
V38     V34    10.0   1_556     S
V38     V58    10.0   .     S
V38     V50    10.0   .     S
V38     V54    10.0   .     S
V38     V60    10.0   1_455     S
V38     V49    10.0   1_565     S
V38     V46    10.0   .     S
V39     V7    10.0   1_556     S
V39     V35    10.0   1_556     S
V39     V59    10.0   .     S
V39     V51    10.0   .     S
V39     V55    10.0   .     S
V39     V57    10.0   .     S
V39     V52    10.0   .     S
V39     V47    10.0   .     S
V40     V8    10.0   1_556     S
V40     V36    10.0   1_556     S
V40     V60    10.0   .     S
V40     V52    10.0   .     S
V40     V56    10.0   .     S
V40     V58    10.0   .     S
V40     V51    10.0   1_565     S
V40     V48    10.0   .     S
V41     V18    10.0   1_545     S
V41     V6    10.0   1_545     S
V41     V2    10.0   1_545     S
V41     V46    10.0   1_544     S
V41     V49    10.0   1_554     S
V41     V20    10.0   1_445     S
V42     V45    10.0   1_554     S
V42     V50    10.0   1_554     S
V42     V19    10.0   1_455     S
V43     V20    10.0   1_545     S
V43     V8    10.0   1_545     S
V43     V4    10.0   1_545     S
V43     V48    10.0   1_544     S
V43     V51    10.0   1_554     S
V43     V18    10.0   1_545     S
V44     V47    10.0   1_554     S
V44     V52    10.0   1_554     S
V45     V17    10.0   1_556     S
V45     V42    10.0   1_556     S
V45     V50    10.0   .     S
V45     V58    10.0   .     S
V45     V62    10.0   .     S
V45     V57    10.0   .     S
V45     V52    10.0   .     S
V46     V18    10.0   1_556     S
V46     V41    10.0   1_566     S
V46     V49    10.0   1_565     S
V46     V57    10.0   1_565     S
V46     V61    10.0   1_565     S
V46     V58    10.0   .     S
V46     V51    10.0   1_565     S
V47     V19    10.0   1_556     S
V47     V44    10.0   1_556     S
V47     V52    10.0   .     S
V47     V60    10.0   .     S
V47     V64    10.0   .     S
V47     V59    10.0   .     S
V47     V50    10.0   1_655     S
V48     V20    10.0   1_556     S
V48     V43    10.0   1_566     S
V48     V51    10.0   1_565     S
V48     V59    10.0   1_565     S
V48     V63    10.0   1_565     S
V48     V60    10.0   .     S
V48     V49    10.0   1_665     S
V49     V30    10.0   1_545     S
V49     V46    10.0   1_545     S
V49     V41    10.0   1_556     S
V49     V53    10.0   .     S
V49     V59    10.0   1_455     S
V49     V38    10.0   1_545     S
V49     V48    10.0   1_445     S
V50     V42    10.0   1_556     S
V50     V54    10.0   .     S
V50     V60    10.0   1_455     S
V50     V47    10.0   1_455     S
V51     V32    10.0   1_545     S
V51     V48    10.0   1_545     S
V51     V43    10.0   1_556     S
V51     V55    10.0   .     S
V51     V57    10.0   .     S
V51     V40    10.0   1_545     S
V51     V46    10.0   1_545     S
V52     V44    10.0   1_556     S
V52     V56    10.0   .     S
V52     V58    10.0   .     S
V53     V30    10.0   1_545     S
V53     V11    10.0   1_455     S
V53     V61    10.0   .     S
V54     V12    10.0   1_455     S
V54     V62    10.0   .     S
V55     V32    10.0   1_545     S
V55     V63    10.0   .     S
V56     V64    10.0   .     S
V57     V33    10.0   1_556     S
V57     V46    10.0   1_545     S
V57     V61    10.0   .     S
V58     V34    10.0   1_556     S
V58     V62    10.0   .     S
V59     V35    10.0   1_556     S
V59     V48    10.0   1_545     S
V59     V63    10.0   .     S
V59     V37    10.0   1_655     S
V59     V49    10.0   1_655     S
V60     V36    10.0   1_556     S
V60     V64    10.0   .     S
V60     V38    10.0   1_655     S
V60     V50    10.0   1_655     S
V61     V32    10.0   1_545     S
V61     V10    10.0   1_545     S
V61     V46    10.0   1_545     S
V61     V30    10.0   1_545     S
V63     V30    10.0   1_645     S
V63     V12    10.0   1_545     S
V63     V48    10.0   1_545     S
V63     V32    10.0   1_545     S
V64     V29    10.0   1_655     S
