data_wfs
_audit_creation_date              2019-12-31
_audit_creation_method            'Pymatgen'
_symmetry_space_group_name_H-M    'P1'
_symmetry_Int_Tables_number       1
loop_
_symmetry_equiv_pos_as_xyz
  x,y,z
_cell_length_a                    35.5414
_cell_length_b                    35.5414
_cell_length_c                    22.5705
_cell_angle_alpha                 90.0
_cell_angle_beta                 90.0
_cell_angle_gamma                 90.0
loop_
_atom_site_label
_atom_site_type_symbol
_atom_site_fract_x
_atom_site_fract_y
_atom_site_fract_z
V1     V     0.4005   0.4005   0.1567
V2     V     0.4005   0.9005   0.1567
V3     V     0.9005   0.4005   0.1567
V4     V     0.9005   0.9005   0.1567
V5     V     0.0995   0.0995   0.1567
V6     V     0.0995   0.5995   0.1567
V7     V     0.5995   0.0995   0.1567
V8     V     0.5995   0.5995   0.1567
V9     V     0.1505   0.3495   0.3434
V10     V     0.1505   0.8495   0.3434
V11     V     0.6505   0.3495   0.3434
V12     V     0.6505   0.8495   0.3434
V13     V     0.3495   0.1505   0.3434
V14     V     0.3495   0.6505   0.3434
V15     V     0.8495   0.1505   0.3434
V16     V     0.8495   0.6505   0.3434
V17     V     0.3495   0.3495   0.6566
V18     V     0.3495   0.8495   0.6566
V19     V     0.8495   0.3495   0.6566
V20     V     0.8495   0.8495   0.6566
V21     V     0.1505   0.1505   0.6566
V22     V     0.1505   0.6505   0.6566
V23     V     0.6505   0.1505   0.6566
V24     V     0.6505   0.6505   0.6566
V25     V     0.0995   0.4005   0.8434
V26     V     0.0995   0.9005   0.8434
V27     V     0.5995   0.4005   0.8434
V28     V     0.5995   0.9005   0.8434
V29     V     0.4005   0.0995   0.8434
V30     V     0.4005   0.5995   0.8434
V31     V     0.9005   0.0995   0.8434
V32     V     0.9005   0.5995   0.8434
loop_
_geom_bond_atom_site_label_1
_geom_bond_atom_site_label_2
_geom_bond_distance
_geom_bond_site_symmetry_2
_ccdc_geom_bond_type
V1     V9    10.0   .     S
V1     V13    10.0   .     S
V1     V8    10.0   .     S
V1     V14    10.0   .     S
V1     V11    10.0   .     S
V1     V27    10.0   1_554     S
V1     V30    10.0   1_554     S
V2     V10    10.0   .     S
V2     V14    10.0   .     S
V2     V7    10.0   1_565     S
V2     V13    10.0   1_565     S
V2     V12    10.0   .     S
V2     V28    10.0   1_554     S
V2     V29    10.0   1_564     S
V3     V11    10.0   .     S
V3     V15    10.0   .     S
V3     V6    10.0   1_655     S
V3     V16    10.0   .     S
V3     V9    10.0   1_655     S
V3     V25    10.0   1_654     S
V3     V32    10.0   1_554     S
V4     V12    10.0   .     S
V4     V16    10.0   .     S
V4     V5    10.0   1_665     S
V4     V15    10.0   1_565     S
V4     V10    10.0   1_655     S
V4     V26    10.0   1_654     S
V4     V31    10.0   1_564     S
V5     V4    10.0   1_445     S
V5     V13    10.0   .     S
V5     V9    10.0   .     S
V5     V15    10.0   1_455     S
V5     V10    10.0   1_545     S
V5     V26    10.0   1_544     S
V5     V31    10.0   1_454     S
V6     V3    10.0   1_455     S
V6     V14    10.0   .     S
V6     V10    10.0   .     S
V6     V16    10.0   1_455     S
V6     V9    10.0   .     S
V6     V25    10.0   1_554     S
V6     V32    10.0   1_454     S
V7     V2    10.0   1_545     S
V7     V15    10.0   .     S
V7     V11    10.0   .     S
V7     V13    10.0   .     S
V7     V12    10.0   1_545     S
V7     V28    10.0   1_544     S
V7     V29    10.0   1_554     S
V8     V16    10.0   .     S
V8     V12    10.0   .     S
V8     V14    10.0   .     S
V8     V11    10.0   .     S
V8     V27    10.0   1_554     S
V8     V30    10.0   1_554     S
V9     V3    10.0   1_455     S
V9     V13    10.0   .     S
V9     V17    10.0   .     S
V9     V21    10.0   .     S
V10     V5    10.0   1_565     S
V10     V4    10.0   1_455     S
V10     V14    10.0   .     S
V10     V18    10.0   .     S
V10     V22    10.0   .     S
V11     V15    10.0   .     S
V11     V19    10.0   .     S
V11     V23    10.0   .     S
V12     V7    10.0   1_565     S
V12     V16    10.0   .     S
V12     V20    10.0   .     S
V12     V24    10.0   .     S
V13     V2    10.0   1_545     S
V13     V17    10.0   .     S
V13     V21    10.0   .     S
V14     V18    10.0   .     S
V14     V22    10.0   .     S
V15     V4    10.0   1_545     S
V15     V5    10.0   1_655     S
V15     V19    10.0   .     S
V15     V23    10.0   .     S
V16     V6    10.0   1_655     S
V16     V20    10.0   .     S
V16     V24    10.0   .     S
V17     V25    10.0   .     S
V17     V27    10.0   .     S
V17     V30    10.0   .     S
V17     V21    10.0   .     S
V17     V29    10.0   .     S
V18     V26    10.0   .     S
V18     V28    10.0   .     S
V18     V29    10.0   1_565     S
V18     V22    10.0   .     S
V18     V30    10.0   .     S
V19     V27    10.0   .     S
V19     V25    10.0   1_655     S
V19     V32    10.0   .     S
V19     V23    10.0   .     S
V19     V31    10.0   .     S
V20     V28    10.0   .     S
V20     V26    10.0   1_655     S
V20     V31    10.0   1_565     S
V20     V24    10.0   .     S
V20     V32    10.0   .     S
V21     V25    10.0   .     S
V21     V29    10.0   .     S
V21     V31    10.0   1_455     S
V21     V26    10.0   1_545     S
V22     V26    10.0   .     S
V22     V30    10.0   .     S
V22     V32    10.0   1_455     S
V22     V25    10.0   .     S
V23     V27    10.0   .     S
V23     V31    10.0   .     S
V23     V29    10.0   .     S
V23     V28    10.0   1_545     S
V24     V28    10.0   .     S
V24     V32    10.0   .     S
V24     V30    10.0   .     S
V24     V27    10.0   .     S
V25     V3    10.0   1_456     S
V25     V6    10.0   1_556     S
V25     V19    10.0   1_455     S
V25     V32    10.0   1_455     S
V26     V4    10.0   1_456     S
V26     V5    10.0   1_566     S
V26     V20    10.0   1_455     S
V26     V31    10.0   1_465     S
V26     V21    10.0   1_565     S
V27     V1    10.0   1_556     S
V27     V8    10.0   1_556     S
V27     V30    10.0   .     S
V28     V2    10.0   1_556     S
V28     V7    10.0   1_566     S
V28     V29    10.0   1_565     S
V28     V23    10.0   1_565     S
V29     V2    10.0   1_546     S
V29     V7    10.0   1_556     S
V29     V18    10.0   1_545     S
V29     V28    10.0   1_545     S
V30     V1    10.0   1_556     S
V30     V8    10.0   1_556     S
V31     V4    10.0   1_546     S
V31     V5    10.0   1_656     S
V31     V20    10.0   1_545     S
V31     V26    10.0   1_645     S
V31     V21    10.0   1_655     S
V32     V3    10.0   1_556     S
V32     V6    10.0   1_656     S
V32     V25    10.0   1_655     S
V32     V22    10.0   1_655     S
