data_wft
_audit_creation_date              2019-12-31
_audit_creation_method            'Pymatgen'
_symmetry_space_group_name_H-M    'P1'
_symmetry_Int_Tables_number       1
loop_
_symmetry_equiv_pos_as_xyz
  x,y,z
_cell_length_a                    38.4448
_cell_length_b                    38.4448
_cell_length_c                    37.0202
_cell_angle_alpha                 90.0
_cell_angle_beta                 90.0
_cell_angle_gamma                 90.0
loop_
_atom_site_label
_atom_site_type_symbol
_atom_site_fract_x
_atom_site_fract_y
_atom_site_fract_z
V1     V     0.4497   0.1301   0.0881
V2     V     0.4497   0.1301   0.5881
V3     V     0.4497   0.6301   0.0881
V4     V     0.4497   0.6301   0.5881
V5     V     0.9497   0.1301   0.0881
V6     V     0.9497   0.1301   0.5881
V7     V     0.9497   0.6301   0.0881
V8     V     0.9497   0.6301   0.5881
V9     V     0.0503   0.3699   0.0881
V10     V     0.0503   0.3699   0.5881
V11     V     0.0503   0.8699   0.0881
V12     V     0.0503   0.8699   0.5881
V13     V     0.5503   0.3699   0.0881
V14     V     0.5503   0.3699   0.5881
V15     V     0.5503   0.8699   0.0881
V16     V     0.5503   0.8699   0.5881
V17     V     0.3699   0.4497   0.4119
V18     V     0.3699   0.4497   0.9119
V19     V     0.3699   0.9497   0.4119
V20     V     0.3699   0.9497   0.9119
V21     V     0.8699   0.4497   0.4119
V22     V     0.8699   0.4497   0.9119
V23     V     0.8699   0.9497   0.4119
V24     V     0.8699   0.9497   0.9119
V25     V     0.1301   0.0503   0.4119
V26     V     0.1301   0.0503   0.9119
V27     V     0.1301   0.5503   0.4119
V28     V     0.1301   0.5503   0.9119
V29     V     0.6301   0.0503   0.4119
V30     V     0.6301   0.0503   0.9119
V31     V     0.6301   0.5503   0.4119
V32     V     0.6301   0.5503   0.9119
V33     V     0.3003   0.3801   0.1619
V34     V     0.3003   0.3801   0.6619
V35     V     0.3003   0.8801   0.1619
V36     V     0.3003   0.8801   0.6619
V37     V     0.8003   0.3801   0.1619
V38     V     0.8003   0.3801   0.6619
V39     V     0.8003   0.8801   0.1619
V40     V     0.8003   0.8801   0.6619
V41     V     0.1997   0.1199   0.1619
V42     V     0.1997   0.1199   0.6619
V43     V     0.1997   0.6199   0.1619
V44     V     0.1997   0.6199   0.6619
V45     V     0.6997   0.1199   0.1619
V46     V     0.6997   0.1199   0.6619
V47     V     0.6997   0.6199   0.1619
V48     V     0.6997   0.6199   0.6619
V49     V     0.1199   0.3003   0.3381
V50     V     0.1199   0.3003   0.8381
V51     V     0.1199   0.8003   0.3381
V52     V     0.1199   0.8003   0.8381
V53     V     0.6199   0.3003   0.3381
V54     V     0.6199   0.3003   0.8381
V55     V     0.6199   0.8003   0.3381
V56     V     0.6199   0.8003   0.8381
V57     V     0.3801   0.1997   0.3381
V58     V     0.3801   0.1997   0.8381
V59     V     0.3801   0.6997   0.3381
V60     V     0.3801   0.6997   0.8381
V61     V     0.8801   0.1997   0.3381
V62     V     0.8801   0.1997   0.8381
V63     V     0.8801   0.6997   0.3381
V64     V     0.8801   0.6997   0.8381
loop_
_geom_bond_atom_site_label_1
_geom_bond_atom_site_label_2
_geom_bond_distance
_geom_bond_site_symmetry_2
_ccdc_geom_bond_type
V1     V45    10.0   .     S
V1     V57    10.0   .     S
V1     V41    10.0   .     S
V1     V20    10.0   1_544     S
V1     V30    10.0   1_554     S
V1     V58    10.0   1_554     S
V1     V13    10.0   .     S
V2     V46    10.0   .     S
V2     V58    10.0   .     S
V2     V42    10.0   .     S
V2     V19    10.0   1_545     S
V2     V29    10.0   .     S
V2     V57    10.0   .     S
V2     V14    10.0   .     S
V3     V47    10.0   .     S
V3     V59    10.0   .     S
V3     V43    10.0   .     S
V3     V18    10.0   1_554     S
V3     V32    10.0   1_554     S
V3     V60    10.0   1_554     S
V3     V15    10.0   .     S
V4     V48    10.0   .     S
V4     V60    10.0   .     S
V4     V44    10.0   .     S
V4     V17    10.0   .     S
V4     V31    10.0   .     S
V4     V59    10.0   .     S
V4     V16    10.0   .     S
V5     V41    10.0   1_655     S
V5     V61    10.0   .     S
V5     V45    10.0   .     S
V5     V24    10.0   1_544     S
V5     V26    10.0   1_654     S
V5     V62    10.0   1_554     S
V5     V9    10.0   1_655     S
V6     V42    10.0   1_655     S
V6     V62    10.0   .     S
V6     V46    10.0   .     S
V6     V23    10.0   1_545     S
V6     V25    10.0   1_655     S
V6     V61    10.0   .     S
V6     V10    10.0   1_655     S
V7     V43    10.0   1_655     S
V7     V63    10.0   .     S
V7     V47    10.0   .     S
V7     V22    10.0   1_554     S
V7     V28    10.0   1_654     S
V7     V64    10.0   1_554     S
V7     V11    10.0   1_655     S
V8     V44    10.0   1_655     S
V8     V64    10.0   .     S
V8     V48    10.0   .     S
V8     V21    10.0   .     S
V8     V27    10.0   1_655     S
V8     V63    10.0   .     S
V8     V12    10.0   1_655     S
V9     V49    10.0   .     S
V9     V33    10.0   .     S
V9     V37    10.0   1_455     S
V9     V28    10.0   1_554     S
V9     V22    10.0   1_454     S
V9     V50    10.0   1_554     S
V9     V5    10.0   1_455     S
V10     V50    10.0   .     S
V10     V34    10.0   .     S
V10     V38    10.0   1_455     S
V10     V27    10.0   .     S
V10     V21    10.0   1_455     S
V10     V49    10.0   .     S
V10     V6    10.0   1_455     S
V11     V51    10.0   .     S
V11     V35    10.0   .     S
V11     V39    10.0   1_455     S
V11     V26    10.0   1_564     S
V11     V24    10.0   1_454     S
V11     V52    10.0   1_554     S
V11     V7    10.0   1_455     S
V12     V52    10.0   .     S
V12     V36    10.0   .     S
V12     V40    10.0   1_455     S
V12     V25    10.0   1_565     S
V12     V23    10.0   1_455     S
V12     V51    10.0   .     S
V12     V8    10.0   1_455     S
V13     V53    10.0   .     S
V13     V37    10.0   .     S
V13     V33    10.0   .     S
V13     V32    10.0   1_554     S
V13     V18    10.0   1_554     S
V13     V54    10.0   1_554     S
V14     V54    10.0   .     S
V14     V38    10.0   .     S
V14     V34    10.0   .     S
V14     V31    10.0   .     S
V14     V17    10.0   .     S
V14     V53    10.0   .     S
V15     V55    10.0   .     S
V15     V39    10.0   .     S
V15     V35    10.0   .     S
V15     V30    10.0   1_564     S
V15     V20    10.0   1_554     S
V15     V56    10.0   1_554     S
V16     V56    10.0   .     S
V16     V40    10.0   .     S
V16     V36    10.0   .     S
V16     V29    10.0   1_565     S
V16     V19    10.0   .     S
V16     V55    10.0   .     S
V17     V34    10.0   .     S
V17     V33    10.0   .     S
V17     V57    10.0   .     S
V17     V59    10.0   .     S
V17     V27    10.0   .     S
V18     V33    10.0   1_556     S
V18     V3    10.0   1_556     S
V18     V13    10.0   1_556     S
V18     V34    10.0   .     S
V18     V58    10.0   .     S
V18     V60    10.0   .     S
V18     V28    10.0   .     S
V19     V36    10.0   .     S
V19     V2    10.0   1_565     S
V19     V35    10.0   .     S
V19     V59    10.0   .     S
V19     V57    10.0   1_565     S
V19     V25    10.0   1_565     S
V20     V35    10.0   1_556     S
V20     V1    10.0   1_566     S
V20     V15    10.0   1_556     S
V20     V36    10.0   .     S
V20     V60    10.0   .     S
V20     V58    10.0   1_565     S
V20     V26    10.0   1_565     S
V21     V38    10.0   .     S
V21     V10    10.0   1_655     S
V21     V37    10.0   .     S
V21     V61    10.0   .     S
V21     V63    10.0   .     S
V21     V31    10.0   .     S
V22     V37    10.0   1_556     S
V22     V7    10.0   1_556     S
V22     V9    10.0   1_656     S
V22     V38    10.0   .     S
V22     V62    10.0   .     S
V22     V64    10.0   .     S
V22     V32    10.0   .     S
V23     V40    10.0   .     S
V23     V6    10.0   1_565     S
V23     V12    10.0   1_655     S
V23     V39    10.0   .     S
V23     V63    10.0   .     S
V23     V61    10.0   1_565     S
V23     V29    10.0   1_565     S
V24     V39    10.0   1_556     S
V24     V5    10.0   1_566     S
V24     V11    10.0   1_656     S
V24     V40    10.0   .     S
V24     V64    10.0   .     S
V24     V62    10.0   1_565     S
V24     V30    10.0   1_565     S
V25     V42    10.0   .     S
V25     V12    10.0   1_545     S
V25     V6    10.0   1_455     S
V25     V41    10.0   .     S
V25     V49    10.0   .     S
V25     V51    10.0   1_545     S
V25     V19    10.0   1_545     S
V26     V41    10.0   1_556     S
V26     V11    10.0   1_546     S
V26     V5    10.0   1_456     S
V26     V42    10.0   .     S
V26     V50    10.0   .     S
V26     V52    10.0   1_545     S
V26     V20    10.0   1_545     S
V27     V44    10.0   .     S
V27     V8    10.0   1_455     S
V27     V43    10.0   .     S
V27     V51    10.0   .     S
V27     V49    10.0   .     S
V28     V43    10.0   1_556     S
V28     V9    10.0   1_556     S
V28     V7    10.0   1_456     S
V28     V44    10.0   .     S
V28     V52    10.0   .     S
V28     V50    10.0   .     S
V29     V46    10.0   .     S
V29     V16    10.0   1_545     S
V29     V45    10.0   .     S
V29     V53    10.0   .     S
V29     V55    10.0   1_545     S
V29     V23    10.0   1_545     S
V30     V45    10.0   1_556     S
V30     V15    10.0   1_546     S
V30     V1    10.0   1_556     S
V30     V46    10.0   .     S
V30     V54    10.0   .     S
V30     V56    10.0   1_545     S
V30     V24    10.0   1_545     S
V31     V48    10.0   .     S
V31     V47    10.0   .     S
V31     V55    10.0   .     S
V31     V53    10.0   .     S
V32     V47    10.0   1_556     S
V32     V13    10.0   1_556     S
V32     V3    10.0   1_556     S
V32     V48    10.0   .     S
V32     V56    10.0   .     S
V32     V54    10.0   .     S
V33     V18    10.0   1_554     S
V33     V57    10.0   .     S
V33     V49    10.0   .     S
V33     V43    10.0   .     S
V34     V58    10.0   .     S
V34     V50    10.0   .     S
V34     V44    10.0   .     S
V35     V20    10.0   1_554     S
V35     V59    10.0   .     S
V35     V51    10.0   .     S
V35     V41    10.0   1_565     S
V36     V60    10.0   .     S
V36     V52    10.0   .     S
V36     V42    10.0   1_565     S
V37     V22    10.0   1_554     S
V37     V9    10.0   1_655     S
V37     V61    10.0   .     S
V37     V53    10.0   .     S
V37     V47    10.0   .     S
V38     V10    10.0   1_655     S
V38     V62    10.0   .     S
V38     V54    10.0   .     S
V38     V48    10.0   .     S
V39     V24    10.0   1_554     S
V39     V11    10.0   1_655     S
V39     V63    10.0   .     S
V39     V55    10.0   .     S
V39     V45    10.0   1_565     S
V40     V12    10.0   1_655     S
V40     V64    10.0   .     S
V40     V56    10.0   .     S
V40     V46    10.0   1_565     S
V41     V26    10.0   1_554     S
V41     V5    10.0   1_455     S
V41     V49    10.0   .     S
V41     V57    10.0   .     S
V41     V35    10.0   1_545     S
V42     V6    10.0   1_455     S
V42     V50    10.0   .     S
V42     V58    10.0   .     S
V42     V36    10.0   1_545     S
V43     V28    10.0   1_554     S
V43     V7    10.0   1_455     S
V43     V51    10.0   .     S
V43     V59    10.0   .     S
V44     V8    10.0   1_455     S
V44     V52    10.0   .     S
V44     V60    10.0   .     S
V45     V30    10.0   1_554     S
V45     V53    10.0   .     S
V45     V61    10.0   .     S
V45     V39    10.0   1_545     S
V46     V54    10.0   .     S
V46     V62    10.0   .     S
V46     V40    10.0   1_545     S
V47     V32    10.0   1_554     S
V47     V55    10.0   .     S
V47     V63    10.0   .     S
V48     V56    10.0   .     S
V48     V64    10.0   .     S
V49     V61    10.0   1_455     S
V50     V9    10.0   1_556     S
V50     V62    10.0   1_455     S
V51     V25    10.0   1_565     S
V51     V63    10.0   1_455     S
V52     V11    10.0   1_556     S
V52     V26    10.0   1_565     S
V52     V64    10.0   1_455     S
V53     V57    10.0   .     S
V54     V13    10.0   1_556     S
V54     V58    10.0   .     S
V55     V29    10.0   1_565     S
V55     V59    10.0   .     S
V56     V15    10.0   1_556     S
V56     V30    10.0   1_565     S
V56     V60    10.0   .     S
V57     V19    10.0   1_545     S
V58     V1    10.0   1_556     S
V58     V20    10.0   1_545     S
V60     V3    10.0   1_556     S
V61     V23    10.0   1_545     S
V61     V49    10.0   1_655     S
V62     V5    10.0   1_556     S
V62     V24    10.0   1_545     S
V62     V50    10.0   1_655     S
V63     V51    10.0   1_655     S
V64     V7    10.0   1_556     S
V64     V52    10.0   1_655     S
