data_wfu
_audit_creation_date              2019-12-31
_audit_creation_method            'Pymatgen'
_symmetry_space_group_name_H-M    'P1'
_symmetry_Int_Tables_number       1
loop_
_symmetry_equiv_pos_as_xyz
  x,y,z
_cell_length_a                    38.8632
_cell_length_b                    38.8632
_cell_length_c                    36.5896
_cell_angle_alpha                 90.0
_cell_angle_beta                 90.0
_cell_angle_gamma                 90.0
loop_
_atom_site_label
_atom_site_type_symbol
_atom_site_fract_x
_atom_site_fract_y
_atom_site_fract_z
V1     V     0.3896   0.0661   0.1534
V2     V     0.3896   0.0661   0.6534
V3     V     0.3896   0.5661   0.1534
V4     V     0.3896   0.5661   0.6534
V5     V     0.8896   0.0661   0.1534
V6     V     0.8896   0.0661   0.6534
V7     V     0.8896   0.5661   0.1534
V8     V     0.8896   0.5661   0.6534
V9     V     0.0661   0.1104   0.3466
V10     V     0.0661   0.1104   0.8466
V11     V     0.0661   0.6104   0.3466
V12     V     0.0661   0.6104   0.8466
V13     V     0.5661   0.1104   0.3466
V14     V     0.5661   0.1104   0.8466
V15     V     0.5661   0.6104   0.3466
V16     V     0.5661   0.6104   0.8466
V17     V     0.1104   0.4339   0.1534
V18     V     0.1104   0.4339   0.6534
V19     V     0.1104   0.9339   0.1534
V20     V     0.1104   0.9339   0.6534
V21     V     0.6104   0.4339   0.1534
V22     V     0.6104   0.4339   0.6534
V23     V     0.6104   0.9339   0.1534
V24     V     0.6104   0.9339   0.6534
V25     V     0.4339   0.3896   0.3466
V26     V     0.4339   0.3896   0.8466
V27     V     0.4339   0.8896   0.3466
V28     V     0.4339   0.8896   0.8466
V29     V     0.9339   0.3896   0.3466
V30     V     0.9339   0.3896   0.8466
V31     V     0.9339   0.8896   0.3466
V32     V     0.9339   0.8896   0.8466
V33     V     0.1396   0.1839   0.0966
V34     V     0.1396   0.1839   0.5966
V35     V     0.1396   0.6839   0.0966
V36     V     0.1396   0.6839   0.5966
V37     V     0.6396   0.1839   0.0966
V38     V     0.6396   0.1839   0.5966
V39     V     0.6396   0.6839   0.0966
V40     V     0.6396   0.6839   0.5966
V41     V     0.1839   0.3604   0.4034
V42     V     0.1839   0.3604   0.9034
V43     V     0.1839   0.8604   0.4034
V44     V     0.1839   0.8604   0.9034
V45     V     0.6839   0.3604   0.4034
V46     V     0.6839   0.3604   0.9034
V47     V     0.6839   0.8604   0.4034
V48     V     0.6839   0.8604   0.9034
V49     V     0.3161   0.1396   0.4034
V50     V     0.3161   0.1396   0.9034
V51     V     0.3161   0.6396   0.4034
V52     V     0.3161   0.6396   0.9034
V53     V     0.8161   0.1396   0.4034
V54     V     0.8161   0.1396   0.9034
V55     V     0.8161   0.6396   0.4034
V56     V     0.8161   0.6396   0.9034
V57     V     0.3604   0.3161   0.0966
V58     V     0.3604   0.3161   0.5966
V59     V     0.3604   0.8161   0.0966
V60     V     0.3604   0.8161   0.5966
V61     V     0.8604   0.3161   0.0966
V62     V     0.8604   0.3161   0.5966
V63     V     0.8604   0.8161   0.0966
V64     V     0.8604   0.8161   0.5966
loop_
_geom_bond_atom_site_label_1
_geom_bond_atom_site_label_2
_geom_bond_distance
_geom_bond_site_symmetry_2
_ccdc_geom_bond_type
V1     V49    10.0   .     S
V1     V13    10.0   .     S
V1     V27    10.0   1_545     S
V1     V23    10.0   1_545     S
V1     V59    10.0   1_545     S
V1     V50    10.0   1_554     S
V1     V57    10.0   .     S
V2     V50    10.0   .     S
V2     V14    10.0   .     S
V2     V28    10.0   1_545     S
V2     V24    10.0   1_545     S
V2     V60    10.0   1_545     S
V2     V49    10.0   .     S
V2     V58    10.0   .     S
V3     V51    10.0   .     S
V3     V15    10.0   .     S
V3     V25    10.0   .     S
V3     V21    10.0   .     S
V3     V57    10.0   .     S
V3     V52    10.0   1_554     S
V3     V59    10.0   .     S
V4     V52    10.0   .     S
V4     V16    10.0   .     S
V4     V26    10.0   .     S
V4     V22    10.0   .     S
V4     V58    10.0   .     S
V4     V51    10.0   .     S
V4     V60    10.0   .     S
V5     V53    10.0   .     S
V5     V9    10.0   1_655     S
V5     V31    10.0   1_545     S
V5     V19    10.0   1_645     S
V5     V63    10.0   1_545     S
V5     V54    10.0   1_554     S
V5     V61    10.0   .     S
V6     V54    10.0   .     S
V6     V10    10.0   1_655     S
V6     V32    10.0   1_545     S
V6     V20    10.0   1_645     S
V6     V64    10.0   1_545     S
V6     V53    10.0   .     S
V6     V62    10.0   .     S
V7     V55    10.0   .     S
V7     V11    10.0   1_655     S
V7     V29    10.0   .     S
V7     V17    10.0   1_655     S
V7     V61    10.0   .     S
V7     V56    10.0   1_554     S
V7     V63    10.0   .     S
V8     V56    10.0   .     S
V8     V12    10.0   1_655     S
V8     V30    10.0   .     S
V8     V18    10.0   1_655     S
V8     V62    10.0   .     S
V8     V55    10.0   .     S
V8     V64    10.0   .     S
V9     V53    10.0   1_455     S
V9     V34    10.0   .     S
V9     V49    10.0   .     S
V9     V5    10.0   1_455     S
V9     V19    10.0   1_545     S
V9     V31    10.0   1_445     S
V9     V33    10.0   .     S
V10     V54    10.0   1_455     S
V10     V33    10.0   1_556     S
V10     V50    10.0   .     S
V10     V6    10.0   1_455     S
V10     V20    10.0   1_545     S
V10     V32    10.0   1_445     S
V10     V34    10.0   .     S
V11     V55    10.0   1_455     S
V11     V36    10.0   .     S
V11     V51    10.0   .     S
V11     V7    10.0   1_455     S
V11     V17    10.0   .     S
V11     V29    10.0   1_455     S
V11     V35    10.0   .     S
V12     V56    10.0   1_455     S
V12     V35    10.0   1_556     S
V12     V52    10.0   .     S
V12     V8    10.0   1_455     S
V12     V18    10.0   .     S
V12     V30    10.0   1_455     S
V12     V36    10.0   .     S
V13     V49    10.0   .     S
V13     V38    10.0   .     S
V13     V53    10.0   .     S
V13     V23    10.0   1_545     S
V13     V27    10.0   1_545     S
V13     V37    10.0   .     S
V14     V50    10.0   .     S
V14     V37    10.0   1_556     S
V14     V54    10.0   .     S
V14     V24    10.0   1_545     S
V14     V28    10.0   1_545     S
V14     V38    10.0   .     S
V15     V51    10.0   .     S
V15     V40    10.0   .     S
V15     V55    10.0   .     S
V15     V21    10.0   .     S
V15     V25    10.0   .     S
V15     V39    10.0   .     S
V16     V52    10.0   .     S
V16     V39    10.0   1_556     S
V16     V56    10.0   .     S
V16     V22    10.0   .     S
V16     V26    10.0   .     S
V16     V40    10.0   .     S
V17     V41    10.0   .     S
V17     V29    10.0   1_455     S
V17     V7    10.0   1_455     S
V17     V42    10.0   1_554     S
V17     V33    10.0   .     S
V17     V35    10.0   .     S
V18     V42    10.0   .     S
V18     V30    10.0   1_455     S
V18     V8    10.0   1_455     S
V18     V41    10.0   .     S
V18     V34    10.0   .     S
V18     V36    10.0   .     S
V19     V43    10.0   .     S
V19     V9    10.0   1_565     S
V19     V31    10.0   1_455     S
V19     V5    10.0   1_465     S
V19     V44    10.0   1_554     S
V19     V35    10.0   .     S
V19     V33    10.0   1_565     S
V20     V44    10.0   .     S
V20     V10    10.0   1_565     S
V20     V32    10.0   1_455     S
V20     V6    10.0   1_465     S
V20     V43    10.0   .     S
V20     V36    10.0   .     S
V20     V34    10.0   1_565     S
V21     V45    10.0   .     S
V21     V25    10.0   .     S
V21     V46    10.0   1_554     S
V21     V37    10.0   .     S
V21     V39    10.0   .     S
V22     V46    10.0   .     S
V22     V26    10.0   .     S
V22     V45    10.0   .     S
V22     V38    10.0   .     S
V22     V40    10.0   .     S
V23     V47    10.0   .     S
V23     V13    10.0   1_565     S
V23     V27    10.0   .     S
V23     V1    10.0   1_565     S
V23     V48    10.0   1_554     S
V23     V39    10.0   .     S
V23     V37    10.0   1_565     S
V24     V48    10.0   .     S
V24     V14    10.0   1_565     S
V24     V28    10.0   .     S
V24     V2    10.0   1_565     S
V24     V47    10.0   .     S
V24     V40    10.0   .     S
V24     V38    10.0   1_565     S
V25     V45    10.0   .     S
V25     V58    10.0   .     S
V25     V41    10.0   .     S
V25     V57    10.0   .     S
V26     V46    10.0   .     S
V26     V57    10.0   1_556     S
V26     V42    10.0   .     S
V26     V58    10.0   .     S
V27     V47    10.0   .     S
V27     V60    10.0   .     S
V27     V43    10.0   .     S
V27     V1    10.0   1_565     S
V27     V13    10.0   1_565     S
V27     V59    10.0   .     S
V28     V48    10.0   .     S
V28     V59    10.0   1_556     S
V28     V44    10.0   .     S
V28     V2    10.0   1_565     S
V28     V14    10.0   1_565     S
V28     V60    10.0   .     S
V29     V41    10.0   1_655     S
V29     V62    10.0   .     S
V29     V45    10.0   .     S
V29     V17    10.0   1_655     S
V29     V11    10.0   1_655     S
V29     V61    10.0   .     S
V30     V42    10.0   1_655     S
V30     V61    10.0   1_556     S
V30     V46    10.0   .     S
V30     V18    10.0   1_655     S
V30     V12    10.0   1_655     S
V30     V62    10.0   .     S
V31     V43    10.0   1_655     S
V31     V64    10.0   .     S
V31     V47    10.0   .     S
V31     V5    10.0   1_565     S
V31     V19    10.0   1_655     S
V31     V9    10.0   1_665     S
V31     V63    10.0   .     S
V32     V44    10.0   1_655     S
V32     V63    10.0   1_556     S
V32     V48    10.0   .     S
V32     V6    10.0   1_565     S
V32     V20    10.0   1_655     S
V32     V10    10.0   1_665     S
V32     V64    10.0   .     S
V33     V10    10.0   1_554     S
V33     V19    10.0   1_545     S
V33     V50    10.0   1_554     S
V33     V42    10.0   1_554     S
V33     V57    10.0   .     S
V34     V20    10.0   1_545     S
V34     V49    10.0   .     S
V34     V41    10.0   .     S
V34     V58    10.0   .     S
V35     V12    10.0   1_554     S
V35     V52    10.0   1_554     S
V35     V44    10.0   1_554     S
V35     V59    10.0   .     S
V36     V51    10.0   .     S
V36     V43    10.0   .     S
V36     V60    10.0   .     S
V37     V14    10.0   1_554     S
V37     V23    10.0   1_545     S
V37     V54    10.0   1_554     S
V37     V46    10.0   1_554     S
V37     V61    10.0   .     S
V38     V24    10.0   1_545     S
V38     V53    10.0   .     S
V38     V45    10.0   .     S
V38     V62    10.0   .     S
V39     V16    10.0   1_554     S
V39     V56    10.0   1_554     S
V39     V48    10.0   1_554     S
V39     V63    10.0   .     S
V40     V55    10.0   .     S
V40     V47    10.0   .     S
V40     V64    10.0   .     S
V41     V29    10.0   1_455     S
V41     V58    10.0   .     S
V41     V49    10.0   .     S
V42     V30    10.0   1_455     S
V42     V17    10.0   1_556     S
V42     V57    10.0   1_556     S
V42     V33    10.0   1_556     S
V42     V50    10.0   .     S
V43     V31    10.0   1_455     S
V43     V60    10.0   .     S
V43     V51    10.0   .     S
V44     V32    10.0   1_455     S
V44     V19    10.0   1_556     S
V44     V59    10.0   1_556     S
V44     V35    10.0   1_556     S
V44     V52    10.0   .     S
V45     V62    10.0   .     S
V45     V53    10.0   .     S
V46     V21    10.0   1_556     S
V46     V61    10.0   1_556     S
V46     V37    10.0   1_556     S
V46     V54    10.0   .     S
V47     V64    10.0   .     S
V47     V55    10.0   .     S
V48     V23    10.0   1_556     S
V48     V63    10.0   1_556     S
V48     V39    10.0   1_556     S
V48     V56    10.0   .     S
V49     V58    10.0   .     S
V50     V1    10.0   1_556     S
V50     V57    10.0   1_556     S
V50     V33    10.0   1_556     S
V51     V60    10.0   .     S
V52     V3    10.0   1_556     S
V52     V59    10.0   1_556     S
V52     V35    10.0   1_556     S
V53     V9    10.0   1_655     S
V53     V62    10.0   .     S
V54     V10    10.0   1_655     S
V54     V5    10.0   1_556     S
V54     V61    10.0   1_556     S
V54     V37    10.0   1_556     S
V55     V11    10.0   1_655     S
V55     V64    10.0   .     S
V56     V12    10.0   1_655     S
V56     V7    10.0   1_556     S
V56     V63    10.0   1_556     S
V56     V39    10.0   1_556     S
V57     V26    10.0   1_554     S
V57     V42    10.0   1_554     S
V57     V50    10.0   1_554     S
V59     V28    10.0   1_554     S
V59     V1    10.0   1_565     S
V59     V44    10.0   1_554     S
V59     V52    10.0   1_554     S
V60     V2    10.0   1_565     S
V61     V30    10.0   1_554     S
V61     V46    10.0   1_554     S
V61     V54    10.0   1_554     S
V63     V32    10.0   1_554     S
V63     V5    10.0   1_565     S
V63     V48    10.0   1_554     S
V63     V56    10.0   1_554     S
V64     V6    10.0   1_565     S
