data_wfw
_audit_creation_date              2019-12-31
_audit_creation_method            'Pymatgen'
_symmetry_space_group_name_H-M    'P1'
_symmetry_Int_Tables_number       1
loop_
_symmetry_equiv_pos_as_xyz
  x,y,z
_cell_length_a                    26.987
_cell_length_b                    26.987
_cell_length_c                    39.4716
_cell_angle_alpha                 90.0
_cell_angle_beta                 90.0
_cell_angle_gamma                 90.0
loop_
_atom_site_label
_atom_site_type_symbol
_atom_site_fract_x
_atom_site_fract_y
_atom_site_fract_z
V1     V     0.5103   0.28   0.451
V2     V     0.5103   0.28   0.951
V3     V     0.72   0.4897   0.299
V4     V     0.72   0.4897   0.799
V5     V     0.78   0.4897   0.049
V6     V     0.78   0.4897   0.549
V7     V     0.9897   0.28   0.201
V8     V     0.9897   0.28   0.701
V9     V     0.78   0.0103   0.299
V10     V     0.78   0.0103   0.799
V11     V     0.9897   0.22   0.451
V12     V     0.9897   0.22   0.951
V13     V     0.5103   0.22   0.201
V14     V     0.5103   0.22   0.701
V15     V     0.72   0.0103   0.049
V16     V     0.72   0.0103   0.549
V17     V     0.4897   0.78   0.299
V18     V     0.4897   0.78   0.799
V19     V     0.28   0.9897   0.451
V20     V     0.28   0.9897   0.951
V21     V     0.4897   0.72   0.049
V22     V     0.4897   0.72   0.549
V23     V     0.28   0.5103   0.201
V24     V     0.28   0.5103   0.701
V25     V     0.22   0.9897   0.201
V26     V     0.22   0.9897   0.701
V27     V     0.0103   0.78   0.049
V28     V     0.0103   0.78   0.549
V29     V     0.22   0.5103   0.451
V30     V     0.22   0.5103   0.951
V31     V     0.0103   0.72   0.299
V32     V     0.0103   0.72   0.799
loop_
_geom_bond_atom_site_label_1
_geom_bond_atom_site_label_2
_geom_bond_distance
_geom_bond_site_symmetry_2
_ccdc_geom_bond_type
V1     V29    10.0   .     S
V1     V6    10.0   .     S
V1     V3    10.0   .     S
V1     V13    10.0   .     S
V1     V16    10.0   .     S
V1     V14    10.0   .     S
V1     V19    10.0   1_545     S
V2     V30    10.0   .     S
V2     V5    10.0   1_556     S
V2     V4    10.0   .     S
V2     V14    10.0   .     S
V2     V15    10.0   1_556     S
V2     V13    10.0   1_556     S
V2     V20    10.0   1_545     S
V3     V17    10.0   .     S
V3     V13    10.0   .     S
V3     V6    10.0   .     S
V3     V7    10.0   .     S
V3     V5    10.0   .     S
V3     V31    10.0   1_655     S
V4     V18    10.0   .     S
V4     V14    10.0   .     S
V4     V5    10.0   1_556     S
V4     V8    10.0   .     S
V4     V6    10.0   .     S
V4     V32    10.0   1_655     S
V5     V2    10.0   1_554     S
V5     V4    10.0   1_554     S
V5     V27    10.0   1_655     S
V5     V12    10.0   1_554     S
V5     V7    10.0   .     S
V5     V21    10.0   .     S
V6     V28    10.0   1_655     S
V6     V11    10.0   .     S
V6     V8    10.0   .     S
V6     V22    10.0   .     S
V7     V23    10.0   1_655     S
V7     V12    10.0   1_554     S
V7     V9    10.0   .     S
V7     V11    10.0   .     S
V7     V25    10.0   1_645     S
V8     V24    10.0   1_655     S
V8     V11    10.0   .     S
V8     V10    10.0   .     S
V8     V12    10.0   .     S
V8     V26    10.0   1_645     S
V9     V31    10.0   1_645     S
V9     V11    10.0   .     S
V9     V16    10.0   .     S
V9     V13    10.0   .     S
V9     V15    10.0   .     S
V9     V17    10.0   1_545     S
V10     V32    10.0   1_645     S
V10     V12    10.0   .     S
V10     V15    10.0   1_556     S
V10     V14    10.0   .     S
V10     V16    10.0   .     S
V10     V18    10.0   1_545     S
V11     V19    10.0   1_645     S
V11     V16    10.0   .     S
V11     V29    10.0   1_655     S
V12     V5    10.0   1_556     S
V12     V7    10.0   1_556     S
V12     V20    10.0   1_645     S
V12     V15    10.0   1_556     S
V12     V30    10.0   1_655     S
V13     V25    10.0   1_545     S
V13     V15    10.0   .     S
V13     V2    10.0   1_554     S
V13     V23    10.0   .     S
V14     V26    10.0   1_545     S
V14     V16    10.0   .     S
V14     V24    10.0   .     S
V15     V12    10.0   1_554     S
V15     V10    10.0   1_554     S
V15     V21    10.0   1_545     S
V15     V2    10.0   1_554     S
V15     V27    10.0   1_645     S
V16     V22    10.0   1_545     S
V16     V28    10.0   1_645     S
V17     V9    10.0   1_565     S
V17     V25    10.0   .     S
V17     V19    10.0   .     S
V17     V22    10.0   .     S
V17     V23    10.0   .     S
V17     V21    10.0   .     S
V18     V10    10.0   1_565     S
V18     V26    10.0   .     S
V18     V20    10.0   .     S
V18     V21    10.0   1_556     S
V18     V24    10.0   .     S
V18     V22    10.0   .     S
V19     V11    10.0   1_465     S
V19     V1    10.0   1_565     S
V19     V22    10.0   .     S
V19     V25    10.0   .     S
V19     V28    10.0   .     S
V19     V26    10.0   .     S
V20     V12    10.0   1_465     S
V20     V2    10.0   1_565     S
V20     V21    10.0   1_556     S
V20     V26    10.0   .     S
V20     V27    10.0   1_556     S
V20     V25    10.0   1_556     S
V21     V15    10.0   1_565     S
V21     V20    10.0   1_554     S
V21     V18    10.0   1_554     S
V21     V30    10.0   1_554     S
V21     V23    10.0   .     S
V22     V16    10.0   1_565     S
V22     V29    10.0   .     S
V22     V24    10.0   .     S
V23     V7    10.0   1_455     S
V23     V30    10.0   1_554     S
V23     V31    10.0   .     S
V23     V29    10.0   .     S
V24     V8    10.0   1_455     S
V24     V29    10.0   .     S
V24     V32    10.0   .     S
V24     V30    10.0   .     S
V25     V13    10.0   1_565     S
V25     V7    10.0   1_465     S
V25     V31    10.0   .     S
V25     V27    10.0   .     S
V25     V20    10.0   1_554     S
V26     V14    10.0   1_565     S
V26     V8    10.0   1_465     S
V26     V32    10.0   .     S
V26     V28    10.0   .     S
V27     V5    10.0   1_455     S
V27     V15    10.0   1_465     S
V27     V20    10.0   1_554     S
V27     V31    10.0   .     S
V27     V30    10.0   1_554     S
V27     V32    10.0   1_554     S
V28     V6    10.0   1_455     S
V28     V16    10.0   1_465     S
V28     V32    10.0   .     S
V28     V29    10.0   .     S
V28     V31    10.0   .     S
V29     V11    10.0   1_455     S
V29     V31    10.0   .     S
V30     V21    10.0   1_556     S
V30     V23    10.0   1_556     S
V30     V12    10.0   1_455     S
V30     V27    10.0   1_556     S
V30     V32    10.0   .     S
V31     V9    10.0   1_465     S
V31     V3    10.0   1_455     S
V32     V10    10.0   1_465     S
V32     V4    10.0   1_455     S
V32     V27    10.0   1_556     S
