data_wfy
_audit_creation_date              2019-12-31
_audit_creation_method            'Pymatgen'
_symmetry_space_group_name_H-M    'P1'
_symmetry_Int_Tables_number       1
loop_
_symmetry_equiv_pos_as_xyz
  x,y,z
_cell_length_a                    21.2322
_cell_length_b                    21.2322
_cell_length_c                    33.2042
_cell_angle_alpha                 90.0
_cell_angle_beta                 90.0
_cell_angle_gamma                 90.0
loop_
_atom_site_label
_atom_site_type_symbol
_atom_site_fract_x
_atom_site_fract_y
_atom_site_fract_z
V1     V     0.8698   0.3038   0.4815
V2     V     0.8698   0.3038   0.9815
V3     V     0.1302   0.6962   0.4815
V4     V     0.1302   0.6962   0.9815
V5     V     0.3038   0.1302   0.0185
V6     V     0.3038   0.1302   0.5185
V7     V     0.6962   0.8698   0.0185
V8     V     0.6962   0.8698   0.5185
V9     V     0.8038   0.6302   0.2685
V10     V     0.8038   0.6302   0.7685
V11     V     0.1962   0.3698   0.2685
V12     V     0.1962   0.3698   0.7685
V13     V     0.3698   0.8038   0.2315
V14     V     0.3698   0.8038   0.7315
V15     V     0.6302   0.1962   0.2315
V16     V     0.6302   0.1962   0.7315
loop_
_geom_bond_atom_site_label_1
_geom_bond_atom_site_label_2
_geom_bond_distance
_geom_bond_site_symmetry_2
_ccdc_geom_bond_type
V1     V11    10.0   1_655     S
V1     V9    10.0   .     S
V1     V15    10.0   .     S
V1     V3    10.0   1_655     S
V1     V6    10.0   1_655     S
V1     V8    10.0   1_545     S
V1     V16    10.0   .     S
V2     V12    10.0   1_655     S
V2     V10    10.0   .     S
V2     V16    10.0   .     S
V2     V4    10.0   1_655     S
V2     V5    10.0   1_656     S
V2     V7    10.0   1_546     S
V2     V15    10.0   1_556     S
V3     V11    10.0   .     S
V3     V9    10.0   1_455     S
V3     V13    10.0   .     S
V3     V1    10.0   1_455     S
V3     V6    10.0   1_565     S
V3     V8    10.0   1_455     S
V3     V14    10.0   .     S
V4     V12    10.0   .     S
V4     V10    10.0   1_455     S
V4     V14    10.0   .     S
V4     V2    10.0   1_455     S
V4     V5    10.0   1_566     S
V4     V7    10.0   1_456     S
V4     V13    10.0   1_556     S
V5     V12    10.0   1_554     S
V5     V4    10.0   1_544     S
V5     V7    10.0   1_545     S
V5     V2    10.0   1_454     S
V5     V13    10.0   1_545     S
V5     V15    10.0   .     S
V5     V11    10.0   .     S
V6     V11    10.0   .     S
V6     V3    10.0   1_545     S
V6     V8    10.0   1_545     S
V6     V1    10.0   1_455     S
V6     V14    10.0   1_545     S
V6     V16    10.0   .     S
V6     V12    10.0   .     S
V7     V10    10.0   1_554     S
V7     V5    10.0   1_565     S
V7     V4    10.0   1_654     S
V7     V2    10.0   1_564     S
V7     V13    10.0   .     S
V7     V15    10.0   1_565     S
V7     V9    10.0   .     S
V8     V9    10.0   .     S
V8     V6    10.0   1_565     S
V8     V3    10.0   1_655     S
V8     V1    10.0   1_565     S
V8     V14    10.0   .     S
V8     V16    10.0   1_565     S
V8     V10    10.0   .     S
V9     V3    10.0   1_655     S
V9     V11    10.0   1_655     S
V9     V15    10.0   .     S
V9     V13    10.0   .     S
V10     V4    10.0   1_655     S
V10     V7    10.0   1_556     S
V10     V12    10.0   1_655     S
V10     V16    10.0   .     S
V10     V14    10.0   .     S
V11     V1    10.0   1_455     S
V11     V9    10.0   1_455     S
V11     V13    10.0   .     S
V11     V15    10.0   .     S
V12     V2    10.0   1_455     S
V12     V5    10.0   1_556     S
V12     V10    10.0   1_455     S
V12     V14    10.0   .     S
V12     V16    10.0   .     S
V13     V5    10.0   1_565     S
V13     V4    10.0   1_554     S
V13     V15    10.0   1_565     S
V14     V6    10.0   1_565     S
V14     V16    10.0   1_565     S
V15     V7    10.0   1_545     S
V15     V2    10.0   1_554     S
V15     V13    10.0   1_545     S
V16     V8    10.0   1_545     S
V16     V14    10.0   1_545     S
