data_wfz
_audit_creation_date              2019-12-31
_audit_creation_method            'Pymatgen'
_symmetry_space_group_name_H-M    'P1'
_symmetry_Int_Tables_number       1
loop_
_symmetry_equiv_pos_as_xyz
  x,y,z
_cell_length_a                    27.8702
_cell_length_b                    27.8702
_cell_length_c                    37.5439
_cell_angle_alpha                 90.0
_cell_angle_beta                 90.0
_cell_angle_gamma                 90.0
loop_
_atom_site_label
_atom_site_type_symbol
_atom_site_fract_x
_atom_site_fract_y
_atom_site_fract_z
V1     V     0.0   0.3375   0.6477
V2     V     0.0   0.8375   0.6477
V3     V     0.5   0.3375   0.6477
V4     V     0.5   0.8375   0.6477
V5     V     0.1625   0.0   0.8523
V6     V     0.1625   0.5   0.8523
V7     V     0.6625   0.0   0.8523
V8     V     0.6625   0.5   0.8523
V9     V     0.3375   0.0   0.3523
V10     V     0.3375   0.5   0.3523
V11     V     0.8375   0.0   0.3523
V12     V     0.8375   0.5   0.3523
V13     V     0.0   0.1625   0.1477
V14     V     0.0   0.6625   0.1477
V15     V     0.5   0.1625   0.1477
V16     V     0.5   0.6625   0.1477
V17     V     0.0875   0.25   0.3977
V18     V     0.0875   0.75   0.3977
V19     V     0.5875   0.25   0.3977
V20     V     0.5875   0.75   0.3977
V21     V     0.25   0.0875   0.6023
V22     V     0.25   0.5875   0.6023
V23     V     0.75   0.0875   0.6023
V24     V     0.75   0.5875   0.6023
V25     V     0.4125   0.25   0.8977
V26     V     0.4125   0.75   0.8977
V27     V     0.9125   0.25   0.8977
V28     V     0.9125   0.75   0.8977
V29     V     0.25   0.4125   0.1023
V30     V     0.25   0.9125   0.1023
V31     V     0.75   0.4125   0.1023
V32     V     0.75   0.9125   0.1023
loop_
_geom_bond_atom_site_label_1
_geom_bond_atom_site_label_2
_geom_bond_distance
_geom_bond_site_symmetry_2
_ccdc_geom_bond_type
V1     V27    10.0   1_455     S
V1     V22    10.0   .     S
V1     V6    10.0   .     S
V1     V21    10.0   .     S
V1     V17    10.0   .     S
V1     V24    10.0   1_455     S
V1     V23    10.0   1_455     S
V2     V28    10.0   1_455     S
V2     V21    10.0   1_565     S
V2     V5    10.0   1_565     S
V2     V22    10.0   .     S
V2     V18    10.0   .     S
V2     V23    10.0   1_465     S
V2     V24    10.0   1_455     S
V3     V25    10.0   .     S
V3     V24    10.0   .     S
V3     V8    10.0   .     S
V3     V23    10.0   .     S
V3     V19    10.0   .     S
V3     V22    10.0   .     S
V3     V21    10.0   .     S
V4     V26    10.0   .     S
V4     V23    10.0   1_565     S
V4     V7    10.0   1_565     S
V4     V24    10.0   .     S
V4     V20    10.0   .     S
V4     V21    10.0   1_565     S
V4     V22    10.0   .     S
V5     V28    10.0   1_445     S
V5     V21    10.0   .     S
V5     V2    10.0   1_545     S
V5     V26    10.0   1_545     S
V5     V30    10.0   1_546     S
V5     V25    10.0   .     S
V5     V27    10.0   1_455     S
V6     V27    10.0   1_455     S
V6     V22    10.0   .     S
V6     V25    10.0   .     S
V6     V29    10.0   1_556     S
V6     V26    10.0   .     S
V6     V28    10.0   1_455     S
V7     V26    10.0   1_545     S
V7     V23    10.0   .     S
V7     V4    10.0   1_545     S
V7     V28    10.0   1_545     S
V7     V32    10.0   1_546     S
V7     V27    10.0   .     S
V7     V25    10.0   .     S
V8     V25    10.0   .     S
V8     V24    10.0   .     S
V8     V27    10.0   .     S
V8     V31    10.0   1_556     S
V8     V28    10.0   .     S
V8     V26    10.0   .     S
V9     V17    10.0   .     S
V9     V21    10.0   .     S
V9     V15    10.0   .     S
V9     V19    10.0   .     S
V9     V30    10.0   1_545     S
V9     V18    10.0   1_545     S
V9     V20    10.0   1_545     S
V10     V18    10.0   .     S
V10     V22    10.0   .     S
V10     V16    10.0   .     S
V10     V20    10.0   .     S
V10     V29    10.0   .     S
V10     V17    10.0   .     S
V10     V19    10.0   .     S
V11     V19    10.0   .     S
V11     V23    10.0   .     S
V11     V13    10.0   1_655     S
V11     V17    10.0   1_655     S
V11     V32    10.0   1_545     S
V11     V20    10.0   1_545     S
V11     V18    10.0   1_645     S
V12     V20    10.0   .     S
V12     V24    10.0   .     S
V12     V14    10.0   1_655     S
V12     V18    10.0   1_655     S
V12     V31    10.0   .     S
V12     V19    10.0   .     S
V12     V17    10.0   1_655     S
V13     V11    10.0   1_455     S
V13     V17    10.0   .     S
V13     V32    10.0   1_445     S
V13     V31    10.0   1_455     S
V13     V27    10.0   1_454     S
V13     V29    10.0   .     S
V13     V30    10.0   1_545     S
V14     V12    10.0   1_455     S
V14     V18    10.0   .     S
V14     V31    10.0   1_455     S
V14     V32    10.0   1_455     S
V14     V28    10.0   1_454     S
V14     V30    10.0   .     S
V14     V29    10.0   .     S
V15     V19    10.0   .     S
V15     V30    10.0   1_545     S
V15     V29    10.0   .     S
V15     V25    10.0   1_554     S
V15     V31    10.0   .     S
V15     V32    10.0   1_545     S
V16     V20    10.0   .     S
V16     V29    10.0   .     S
V16     V30    10.0   .     S
V16     V26    10.0   1_554     S
V16     V32    10.0   .     S
V16     V31    10.0   .     S
V17     V11    10.0   1_455     S
V17     V21    10.0   .     S
V17     V12    10.0   1_455     S
V18     V12    10.0   1_455     S
V18     V22    10.0   .     S
V18     V9    10.0   1_565     S
V18     V11    10.0   1_465     S
V19     V23    10.0   .     S
V20     V24    10.0   .     S
V20     V11    10.0   1_565     S
V20     V9    10.0   1_565     S
V21     V2    10.0   1_545     S
V21     V4    10.0   1_545     S
V23     V4    10.0   1_545     S
V23     V2    10.0   1_645     S
V23     V1    10.0   1_655     S
V24     V1    10.0   1_655     S
V24     V2    10.0   1_655     S
V25     V29    10.0   1_556     S
V25     V15    10.0   1_556     S
V26     V7    10.0   1_565     S
V26     V5    10.0   1_565     S
V26     V30    10.0   1_556     S
V26     V16    10.0   1_556     S
V27     V6    10.0   1_655     S
V27     V1    10.0   1_655     S
V27     V31    10.0   1_556     S
V27     V13    10.0   1_656     S
V27     V5    10.0   1_655     S
V28     V5    10.0   1_665     S
V28     V2    10.0   1_655     S
V28     V7    10.0   1_565     S
V28     V32    10.0   1_556     S
V28     V14    10.0   1_656     S
V28     V6    10.0   1_655     S
V29     V6    10.0   1_554     S
V29     V25    10.0   1_554     S
V30     V5    10.0   1_564     S
V30     V15    10.0   1_565     S
V30     V9    10.0   1_565     S
V30     V26    10.0   1_554     S
V30     V13    10.0   1_565     S
V31     V8    10.0   1_554     S
V31     V14    10.0   1_655     S
V31     V27    10.0   1_554     S
V31     V13    10.0   1_655     S
V32     V7    10.0   1_564     S
V32     V13    10.0   1_665     S
V32     V11    10.0   1_565     S
V32     V28    10.0   1_554     S
V32     V14    10.0   1_655     S
V32     V15    10.0   1_565     S
