data_wga
_audit_creation_date              2019-12-31
_audit_creation_method            'Pymatgen'
_symmetry_space_group_name_H-M    'P1'
_symmetry_Int_Tables_number       1
loop_
_symmetry_equiv_pos_as_xyz
  x,y,z
_cell_length_a                    67.9159
_cell_length_b                    67.9159
_cell_length_c                    30.0
_cell_angle_alpha                 90.0
_cell_angle_beta                 90.0
_cell_angle_gamma                 90.0
loop_
_atom_site_label
_atom_site_type_symbol
_atom_site_fract_x
_atom_site_fract_y
_atom_site_fract_z
V1     V     0.0736   0.0728   0.3082
V2     V     0.0736   0.0728   0.6415
V3     V     0.0736   0.0728   0.9749
V4     V     0.1772   0.1764   0.2751
V5     V     0.1772   0.1764   0.6085
V6     V     0.1772   0.1764   0.9418
V7     V     0.9264   0.0728   0.3082
V8     V     0.9264   0.0728   0.6415
V9     V     0.9264   0.0728   0.9749
V10     V     0.8228   0.1764   0.2751
V11     V     0.8228   0.1764   0.6085
V12     V     0.8228   0.1764   0.9418
V13     V     0.1772   0.3236   0.2751
V14     V     0.1772   0.3236   0.6085
V15     V     0.1772   0.3236   0.9418
V16     V     0.0736   0.4272   0.3082
V17     V     0.0736   0.4272   0.6415
V18     V     0.0736   0.4272   0.9749
V19     V     0.8228   0.3236   0.2751
V20     V     0.8228   0.3236   0.6085
V21     V     0.8228   0.3236   0.9418
V22     V     0.9264   0.4272   0.3082
V23     V     0.9264   0.4272   0.6415
V24     V     0.9264   0.4272   0.9749
V25     V     0.4264   0.0728   0.1918
V26     V     0.4264   0.0728   0.5251
V27     V     0.4264   0.0728   0.8585
V28     V     0.3228   0.1764   0.2249
V29     V     0.3228   0.1764   0.5582
V30     V     0.3228   0.1764   0.8915
V31     V     0.5736   0.0728   0.1918
V32     V     0.5736   0.0728   0.5251
V33     V     0.5736   0.0728   0.8585
V34     V     0.6772   0.1764   0.2249
V35     V     0.6772   0.1764   0.5582
V36     V     0.6772   0.1764   0.8915
V37     V     0.3228   0.3236   0.2249
V38     V     0.3228   0.3236   0.5582
V39     V     0.3228   0.3236   0.8915
V40     V     0.4264   0.4272   0.1918
V41     V     0.4264   0.4272   0.5251
V42     V     0.4264   0.4272   0.8585
V43     V     0.6772   0.3236   0.2249
V44     V     0.6772   0.3236   0.5582
V45     V     0.6772   0.3236   0.8915
V46     V     0.5736   0.4272   0.1918
V47     V     0.5736   0.4272   0.5251
V48     V     0.5736   0.4272   0.8585
V49     V     0.4264   0.9272   0.1415
V50     V     0.4264   0.9272   0.4749
V51     V     0.4264   0.9272   0.8082
V52     V     0.3228   0.8236   0.1085
V53     V     0.3228   0.8236   0.4418
V54     V     0.3228   0.8236   0.7751
V55     V     0.6772   0.8236   0.1085
V56     V     0.6772   0.8236   0.4418
V57     V     0.6772   0.8236   0.7751
V58     V     0.5736   0.9272   0.1415
V59     V     0.5736   0.9272   0.4749
V60     V     0.5736   0.9272   0.8082
V61     V     0.6772   0.6764   0.1085
V62     V     0.6772   0.6764   0.4418
V63     V     0.6772   0.6764   0.7751
V64     V     0.5736   0.5728   0.1415
V65     V     0.5736   0.5728   0.4749
V66     V     0.5736   0.5728   0.8082
V67     V     0.4264   0.5728   0.1415
V68     V     0.4264   0.5728   0.4749
V69     V     0.4264   0.5728   0.8082
V70     V     0.3228   0.6764   0.1085
V71     V     0.3228   0.6764   0.4418
V72     V     0.3228   0.6764   0.7751
V73     V     0.0736   0.5728   0.0251
V74     V     0.0736   0.5728   0.3585
V75     V     0.0736   0.5728   0.6918
V76     V     0.1772   0.6764   0.0582
V77     V     0.1772   0.6764   0.3915
V78     V     0.1772   0.6764   0.7249
V79     V     0.9264   0.5728   0.0251
V80     V     0.9264   0.5728   0.3585
V81     V     0.9264   0.5728   0.6918
V82     V     0.8228   0.6764   0.0582
V83     V     0.8228   0.6764   0.3915
V84     V     0.8228   0.6764   0.7249
V85     V     0.0736   0.9272   0.0251
V86     V     0.0736   0.9272   0.3585
V87     V     0.0736   0.9272   0.6918
V88     V     0.1772   0.8236   0.0582
V89     V     0.1772   0.8236   0.3915
V90     V     0.1772   0.8236   0.7249
V91     V     0.9264   0.9272   0.0251
V92     V     0.9264   0.9272   0.3585
V93     V     0.9264   0.9272   0.6918
V94     V     0.8228   0.8236   0.0582
V95     V     0.8228   0.8236   0.3915
V96     V     0.8228   0.8236   0.7249
loop_
_geom_bond_atom_site_label_1
_geom_bond_atom_site_label_2
_geom_bond_distance
_geom_bond_site_symmetry_2
_ccdc_geom_bond_type
V1     V4    10.0   .     S
V1     V7    10.0   1_455     S
V1     V3    10.0   1_554     S
V1     V2    10.0   .     S
V1     V86    10.0   1_545     S
V2     V5    10.0   .     S
V2     V8    10.0   1_455     S
V2     V3    10.0   .     S
V2     V87    10.0   1_545     S
V3     V6    10.0   .     S
V3     V9    10.0   1_455     S
V3     V1    10.0   1_556     S
V3     V85    10.0   1_546     S
V4     V13    10.0   .     S
V4     V6    10.0   1_554     S
V4     V5    10.0   .     S
V4     V28    10.0   .     S
V5     V14    10.0   .     S
V5     V6    10.0   .     S
V5     V29    10.0   .     S
V6     V15    10.0   .     S
V6     V4    10.0   1_556     S
V6     V30    10.0   .     S
V7     V10    10.0   .     S
V7     V1    10.0   1_655     S
V7     V9    10.0   1_554     S
V7     V8    10.0   .     S
V7     V92    10.0   1_545     S
V8     V11    10.0   .     S
V8     V2    10.0   1_655     S
V8     V9    10.0   .     S
V8     V93    10.0   1_545     S
V9     V12    10.0   .     S
V9     V3    10.0   1_655     S
V9     V7    10.0   1_556     S
V9     V91    10.0   1_546     S
V10     V19    10.0   .     S
V10     V12    10.0   1_554     S
V10     V11    10.0   .     S
V10     V34    10.0   .     S
V11     V20    10.0   .     S
V11     V12    10.0   .     S
V11     V35    10.0   .     S
V12     V21    10.0   .     S
V12     V10    10.0   1_556     S
V12     V36    10.0   .     S
V13     V16    10.0   .     S
V13     V15    10.0   1_554     S
V13     V14    10.0   .     S
V13     V37    10.0   .     S
V14     V17    10.0   .     S
V14     V15    10.0   .     S
V14     V38    10.0   .     S
V15     V18    10.0   .     S
V15     V13    10.0   1_556     S
V15     V39    10.0   .     S
V16     V22    10.0   1_455     S
V16     V18    10.0   1_554     S
V16     V17    10.0   .     S
V16     V74    10.0   .     S
V17     V23    10.0   1_455     S
V17     V18    10.0   .     S
V17     V75    10.0   .     S
V18     V24    10.0   1_455     S
V18     V16    10.0   1_556     S
V18     V73    10.0   1_556     S
V19     V22    10.0   .     S
V19     V21    10.0   1_554     S
V19     V20    10.0   .     S
V19     V43    10.0   .     S
V20     V23    10.0   .     S
V20     V21    10.0   .     S
V20     V44    10.0   .     S
V21     V24    10.0   .     S
V21     V19    10.0   1_556     S
V21     V45    10.0   .     S
V22     V16    10.0   1_655     S
V22     V24    10.0   1_554     S
V22     V23    10.0   .     S
V22     V80    10.0   .     S
V23     V17    10.0   1_655     S
V23     V24    10.0   .     S
V23     V81    10.0   .     S
V24     V18    10.0   1_655     S
V24     V22    10.0   1_556     S
V24     V79    10.0   1_556     S
V25     V28    10.0   .     S
V25     V31    10.0   .     S
V25     V27    10.0   1_554     S
V25     V26    10.0   .     S
V25     V49    10.0   1_545     S
V26     V29    10.0   .     S
V26     V32    10.0   .     S
V26     V27    10.0   .     S
V26     V50    10.0   1_545     S
V27     V30    10.0   .     S
V27     V33    10.0   .     S
V27     V25    10.0   1_556     S
V27     V51    10.0   1_545     S
V28     V37    10.0   .     S
V28     V30    10.0   1_554     S
V28     V29    10.0   .     S
V29     V38    10.0   .     S
V29     V30    10.0   .     S
V30     V39    10.0   .     S
V30     V28    10.0   1_556     S
V31     V34    10.0   .     S
V31     V33    10.0   1_554     S
V31     V32    10.0   .     S
V31     V58    10.0   1_545     S
V32     V35    10.0   .     S
V32     V33    10.0   .     S
V32     V59    10.0   1_545     S
V33     V36    10.0   .     S
V33     V31    10.0   1_556     S
V33     V60    10.0   1_545     S
V34     V43    10.0   .     S
V34     V36    10.0   1_554     S
V34     V35    10.0   .     S
V35     V44    10.0   .     S
V35     V36    10.0   .     S
V36     V45    10.0   .     S
V36     V34    10.0   1_556     S
V37     V40    10.0   .     S
V37     V39    10.0   1_554     S
V37     V38    10.0   .     S
V38     V41    10.0   .     S
V38     V39    10.0   .     S
V39     V42    10.0   .     S
V39     V37    10.0   1_556     S
V40     V46    10.0   .     S
V40     V42    10.0   1_554     S
V40     V41    10.0   .     S
V40     V67    10.0   .     S
V41     V47    10.0   .     S
V41     V42    10.0   .     S
V41     V68    10.0   .     S
V42     V48    10.0   .     S
V42     V40    10.0   1_556     S
V42     V69    10.0   .     S
V43     V46    10.0   .     S
V43     V45    10.0   1_554     S
V43     V44    10.0   .     S
V44     V47    10.0   .     S
V44     V45    10.0   .     S
V45     V48    10.0   .     S
V45     V43    10.0   1_556     S
V46     V48    10.0   1_554     S
V46     V47    10.0   .     S
V46     V64    10.0   .     S
V47     V48    10.0   .     S
V47     V65    10.0   .     S
V48     V46    10.0   1_556     S
V48     V66    10.0   .     S
V49     V52    10.0   .     S
V49     V58    10.0   .     S
V49     V50    10.0   .     S
V49     V51    10.0   1_554     S
V49     V25    10.0   1_565     S
V50     V53    10.0   .     S
V50     V59    10.0   .     S
V50     V51    10.0   .     S
V50     V26    10.0   1_565     S
V51     V54    10.0   .     S
V51     V60    10.0   .     S
V51     V49    10.0   1_556     S
V51     V27    10.0   1_565     S
V52     V70    10.0   .     S
V52     V53    10.0   .     S
V52     V54    10.0   1_554     S
V52     V88    10.0   .     S
V53     V71    10.0   .     S
V53     V54    10.0   .     S
V53     V89    10.0   .     S
V54     V72    10.0   .     S
V54     V52    10.0   1_556     S
V54     V90    10.0   .     S
V55     V58    10.0   .     S
V55     V61    10.0   .     S
V55     V56    10.0   .     S
V55     V57    10.0   1_554     S
V55     V94    10.0   .     S
V56     V59    10.0   .     S
V56     V62    10.0   .     S
V56     V57    10.0   .     S
V56     V95    10.0   .     S
V57     V60    10.0   .     S
V57     V63    10.0   .     S
V57     V55    10.0   1_556     S
V57     V96    10.0   .     S
V58     V59    10.0   .     S
V58     V60    10.0   1_554     S
V58     V31    10.0   1_565     S
V59     V60    10.0   .     S
V59     V32    10.0   1_565     S
V60     V58    10.0   1_556     S
V60     V33    10.0   1_565     S
V61     V64    10.0   .     S
V61     V62    10.0   .     S
V61     V63    10.0   1_554     S
V61     V82    10.0   .     S
V62     V65    10.0   .     S
V62     V63    10.0   .     S
V62     V83    10.0   .     S
V63     V66    10.0   .     S
V63     V61    10.0   1_556     S
V63     V84    10.0   .     S
V64     V67    10.0   .     S
V64     V65    10.0   .     S
V64     V66    10.0   1_554     S
V65     V68    10.0   .     S
V65     V66    10.0   .     S
V66     V69    10.0   .     S
V66     V64    10.0   1_556     S
V67     V70    10.0   .     S
V67     V68    10.0   .     S
V67     V69    10.0   1_554     S
V68     V71    10.0   .     S
V68     V69    10.0   .     S
V69     V72    10.0   .     S
V69     V67    10.0   1_556     S
V70     V71    10.0   .     S
V70     V72    10.0   1_554     S
V70     V76    10.0   .     S
V71     V72    10.0   .     S
V71     V77    10.0   .     S
V72     V70    10.0   1_556     S
V72     V78    10.0   .     S
V73     V76    10.0   .     S
V73     V79    10.0   1_455     S
V73     V74    10.0   .     S
V73     V75    10.0   1_554     S
V73     V18    10.0   1_554     S
V74     V77    10.0   .     S
V74     V80    10.0   1_455     S
V74     V75    10.0   .     S
V75     V78    10.0   .     S
V75     V81    10.0   1_455     S
V75     V73    10.0   1_556     S
V76     V88    10.0   .     S
V76     V77    10.0   .     S
V76     V78    10.0   1_554     S
V77     V89    10.0   .     S
V77     V78    10.0   .     S
V78     V90    10.0   .     S
V78     V76    10.0   1_556     S
V79     V82    10.0   .     S
V79     V73    10.0   1_655     S
V79     V80    10.0   .     S
V79     V81    10.0   1_554     S
V79     V24    10.0   1_554     S
V80     V83    10.0   .     S
V80     V74    10.0   1_655     S
V80     V81    10.0   .     S
V81     V84    10.0   .     S
V81     V75    10.0   1_655     S
V81     V79    10.0   1_556     S
V82     V94    10.0   .     S
V82     V83    10.0   .     S
V82     V84    10.0   1_554     S
V83     V95    10.0   .     S
V83     V84    10.0   .     S
V84     V96    10.0   .     S
V84     V82    10.0   1_556     S
V85     V88    10.0   .     S
V85     V91    10.0   1_455     S
V85     V86    10.0   .     S
V85     V87    10.0   1_554     S
V85     V3    10.0   1_564     S
V86     V89    10.0   .     S
V86     V92    10.0   1_455     S
V86     V87    10.0   .     S
V86     V1    10.0   1_565     S
V87     V90    10.0   .     S
V87     V93    10.0   1_455     S
V87     V85    10.0   1_556     S
V87     V2    10.0   1_565     S
V88     V89    10.0   .     S
V88     V90    10.0   1_554     S
V89     V90    10.0   .     S
V90     V88    10.0   1_556     S
V91     V94    10.0   .     S
V91     V85    10.0   1_655     S
V91     V92    10.0   .     S
V91     V93    10.0   1_554     S
V91     V9    10.0   1_564     S
V92     V95    10.0   .     S
V92     V86    10.0   1_655     S
V92     V93    10.0   .     S
V92     V7    10.0   1_565     S
V93     V96    10.0   .     S
V93     V87    10.0   1_655     S
V93     V91    10.0   1_556     S
V93     V8    10.0   1_565     S
V94     V95    10.0   .     S
V94     V96    10.0   1_554     S
V95     V96    10.0   .     S
V96     V94    10.0   1_556     S
