data_wgb
_audit_creation_date              2019-12-31
_audit_creation_method            'Pymatgen'
_symmetry_space_group_name_H-M    'P1'
_symmetry_Int_Tables_number       1
loop_
_symmetry_equiv_pos_as_xyz
  x,y,z
_cell_length_a                    33.8084
_cell_length_b                    33.8084
_cell_length_c                    32.153
_cell_angle_alpha                 90.0
_cell_angle_beta                 90.0
_cell_angle_gamma                 90.0
loop_
_atom_site_label
_atom_site_type_symbol
_atom_site_fract_x
_atom_site_fract_y
_atom_site_fract_z
V1     V     0.838   0.8979   0.3125
V2     V     0.838   0.8979   0.8125
V3     V     0.838   0.6021   0.3125
V4     V     0.838   0.6021   0.8125
V5     V     0.1021   0.662   0.4375
V6     V     0.1021   0.662   0.9375
V7     V     0.3979   0.662   0.4375
V8     V     0.3979   0.662   0.9375
V9     V     0.662   0.8979   0.0625
V10     V     0.662   0.8979   0.5625
V11     V     0.662   0.6021   0.0625
V12     V     0.662   0.6021   0.5625
V13     V     0.1021   0.838   0.1875
V14     V     0.1021   0.838   0.6875
V15     V     0.3979   0.838   0.1875
V16     V     0.3979   0.838   0.6875
V17     V     0.8979   0.162   0.1875
V18     V     0.8979   0.162   0.6875
V19     V     0.6021   0.162   0.1875
V20     V     0.6021   0.162   0.6875
V21     V     0.162   0.1021   0.3125
V22     V     0.162   0.1021   0.8125
V23     V     0.162   0.3979   0.3125
V24     V     0.162   0.3979   0.8125
V25     V     0.338   0.3979   0.0625
V26     V     0.338   0.3979   0.5625
V27     V     0.338   0.1021   0.0625
V28     V     0.338   0.1021   0.5625
V29     V     0.8979   0.338   0.4375
V30     V     0.8979   0.338   0.9375
V31     V     0.6021   0.338   0.4375
V32     V     0.6021   0.338   0.9375
loop_
_geom_bond_atom_site_label_1
_geom_bond_atom_site_label_2
_geom_bond_distance
_geom_bond_site_symmetry_2
_ccdc_geom_bond_type
V1     V13    10.0   1_655     S
V1     V3    10.0   .     S
V1     V17    10.0   1_565     S
V1     V10    10.0   .     S
V1     V9    10.0   .     S
V2     V14    10.0   1_655     S
V2     V4    10.0   .     S
V2     V18    10.0   1_565     S
V2     V9    10.0   1_556     S
V2     V10    10.0   .     S
V3     V5    10.0   1_655     S
V3     V29    10.0   .     S
V3     V12    10.0   .     S
V3     V11    10.0   .     S
V4     V6    10.0   1_655     S
V4     V30    10.0   .     S
V4     V11    10.0   1_556     S
V4     V12    10.0   .     S
V5     V3    10.0   1_455     S
V5     V23    10.0   .     S
V5     V7    10.0   .     S
V5     V14    10.0   .     S
V5     V13    10.0   .     S
V6     V4    10.0   1_455     S
V6     V24    10.0   .     S
V6     V8    10.0   .     S
V6     V13    10.0   1_556     S
V6     V14    10.0   .     S
V7     V26    10.0   .     S
V7     V12    10.0   .     S
V7     V16    10.0   .     S
V7     V15    10.0   .     S
V8     V25    10.0   1_556     S
V8     V11    10.0   1_556     S
V8     V15    10.0   1_556     S
V8     V16    10.0   .     S
V9     V15    10.0   .     S
V9     V11    10.0   .     S
V9     V19    10.0   1_565     S
V9     V2    10.0   1_554     S
V10     V16    10.0   .     S
V10     V12    10.0   .     S
V10     V20    10.0   1_565     S
V11     V8    10.0   1_554     S
V11     V32    10.0   1_554     S
V11     V4    10.0   1_554     S
V12     V31    10.0   .     S
V13     V1    10.0   1_455     S
V13     V21    10.0   1_565     S
V13     V15    10.0   .     S
V13     V6    10.0   1_554     S
V14     V2    10.0   1_455     S
V14     V22    10.0   1_565     S
V14     V16    10.0   .     S
V15     V27    10.0   1_565     S
V15     V8    10.0   1_554     S
V16     V28    10.0   1_565     S
V17     V1    10.0   1_545     S
V17     V19    10.0   .     S
V17     V21    10.0   1_655     S
V17     V30    10.0   1_554     S
V17     V29    10.0   .     S
V18     V2    10.0   1_545     S
V18     V20    10.0   .     S
V18     V22    10.0   1_655     S
V18     V29    10.0   .     S
V18     V30    10.0   .     S
V19     V9    10.0   1_545     S
V19     V27    10.0   .     S
V19     V32    10.0   1_554     S
V19     V31    10.0   .     S
V20     V10    10.0   1_545     S
V20     V28    10.0   .     S
V20     V31    10.0   .     S
V20     V32    10.0   .     S
V21     V13    10.0   1_545     S
V21     V17    10.0   1_455     S
V21     V23    10.0   .     S
V21     V28    10.0   .     S
V21     V27    10.0   .     S
V22     V14    10.0   1_545     S
V22     V18    10.0   1_455     S
V22     V24    10.0   .     S
V22     V27    10.0   1_556     S
V22     V28    10.0   .     S
V23     V29    10.0   1_455     S
V23     V26    10.0   .     S
V23     V25    10.0   .     S
V24     V30    10.0   1_455     S
V24     V25    10.0   1_556     S
V24     V26    10.0   .     S
V25     V8    10.0   1_554     S
V25     V32    10.0   1_554     S
V25     V27    10.0   .     S
V25     V24    10.0   1_554     S
V26     V31    10.0   .     S
V26     V28    10.0   .     S
V27     V15    10.0   1_545     S
V27     V22    10.0   1_554     S
V28     V16    10.0   1_545     S
V29     V23    10.0   1_655     S
V29     V31    10.0   .     S
V30     V24    10.0   1_655     S
V30     V32    10.0   .     S
V30     V17    10.0   1_556     S
V32     V25    10.0   1_556     S
V32     V11    10.0   1_556     S
V32     V19    10.0   1_556     S
