data_wgh
_audit_creation_date              2019-12-31
_audit_creation_method            'Pymatgen'
_symmetry_space_group_name_H-M    'P1'
_symmetry_Int_Tables_number       1
loop_
_symmetry_equiv_pos_as_xyz
  x,y,z
_cell_length_a                    55.7054
_cell_length_b                    55.7054
_cell_length_c                    25.912
_cell_angle_alpha                 90.0
_cell_angle_beta                 90.0
_cell_angle_gamma                 90.0
loop_
_atom_site_label
_atom_site_type_symbol
_atom_site_fract_x
_atom_site_fract_y
_atom_site_fract_z
V1     V     0.4316   0.9151   0.1875
V2     V     0.4316   0.9151   0.6875
V3     V     0.3349   0.8184   0.4375
V4     V     0.3349   0.8184   0.9375
V5     V     0.1651   0.8184   0.0625
V6     V     0.1651   0.8184   0.5625
V7     V     0.0684   0.9151   0.3125
V8     V     0.0684   0.9151   0.8125
V9     V     0.4316   0.0849   0.0625
V10     V     0.4316   0.0849   0.5625
V11     V     0.3349   0.1816   0.3125
V12     V     0.3349   0.1816   0.8125
V13     V     0.1651   0.1816   0.1875
V14     V     0.1651   0.1816   0.6875
V15     V     0.0684   0.0849   0.4375
V16     V     0.0684   0.0849   0.9375
V17     V     0.6651   0.8184   0.1875
V18     V     0.6651   0.8184   0.6875
V19     V     0.5684   0.9151   0.4375
V20     V     0.5684   0.9151   0.9375
V21     V     0.9316   0.9151   0.0625
V22     V     0.9316   0.9151   0.5625
V23     V     0.8349   0.8184   0.3125
V24     V     0.8349   0.8184   0.8125
V25     V     0.6651   0.1816   0.0625
V26     V     0.6651   0.1816   0.5625
V27     V     0.5684   0.0849   0.3125
V28     V     0.5684   0.0849   0.8125
V29     V     0.9316   0.0849   0.1875
V30     V     0.9316   0.0849   0.6875
V31     V     0.8349   0.1816   0.4375
V32     V     0.8349   0.1816   0.9375
V33     V     0.9316   0.4151   0.4375
V34     V     0.9316   0.4151   0.9375
V35     V     0.8349   0.3184   0.1875
V36     V     0.8349   0.3184   0.6875
V37     V     0.5684   0.4151   0.0625
V38     V     0.5684   0.4151   0.5625
V39     V     0.6651   0.3184   0.3125
V40     V     0.6651   0.3184   0.8125
V41     V     0.6651   0.6816   0.4375
V42     V     0.6651   0.6816   0.9375
V43     V     0.5684   0.5849   0.1875
V44     V     0.5684   0.5849   0.6875
V45     V     0.8349   0.6816   0.0625
V46     V     0.8349   0.6816   0.5625
V47     V     0.9316   0.5849   0.3125
V48     V     0.9316   0.5849   0.8125
V49     V     0.4316   0.4151   0.3125
V50     V     0.4316   0.4151   0.8125
V51     V     0.3349   0.3184   0.0625
V52     V     0.3349   0.3184   0.5625
V53     V     0.1651   0.3184   0.4375
V54     V     0.1651   0.3184   0.9375
V55     V     0.0684   0.4151   0.1875
V56     V     0.0684   0.4151   0.6875
V57     V     0.1651   0.6816   0.3125
V58     V     0.1651   0.6816   0.8125
V59     V     0.0684   0.5849   0.0625
V60     V     0.0684   0.5849   0.5625
V61     V     0.3349   0.6816   0.1875
V62     V     0.3349   0.6816   0.6875
V63     V     0.4316   0.5849   0.4375
V64     V     0.4316   0.5849   0.9375
loop_
_geom_bond_atom_site_label_1
_geom_bond_atom_site_label_2
_geom_bond_distance
_geom_bond_site_symmetry_2
_ccdc_geom_bond_type
V1     V4    10.0   1_554     S
V1     V3    10.0   .     S
V1     V9    10.0   1_565     S
V1     V19    10.0   .     S
V1     V20    10.0   1_554     S
V2     V3    10.0   .     S
V2     V4    10.0   .     S
V2     V10    10.0   1_565     S
V2     V20    10.0   .     S
V2     V19    10.0   .     S
V3     V6    10.0   .     S
V3     V61    10.0   .     S
V3     V62    10.0   .     S
V4     V1    10.0   1_556     S
V4     V5    10.0   1_556     S
V4     V62    10.0   .     S
V4     V61    10.0   1_556     S
V5     V7    10.0   .     S
V5     V8    10.0   1_554     S
V5     V4    10.0   1_554     S
V5     V57    10.0   .     S
V5     V58    10.0   1_554     S
V6     V8    10.0   .     S
V6     V7    10.0   .     S
V6     V58    10.0   .     S
V6     V57    10.0   .     S
V7     V15    10.0   1_565     S
V7     V21    10.0   1_455     S
V7     V22    10.0   1_455     S
V8     V5    10.0   1_556     S
V8     V16    10.0   1_565     S
V8     V22    10.0   1_455     S
V8     V21    10.0   1_456     S
V9     V1    10.0   1_545     S
V9     V11    10.0   .     S
V9     V12    10.0   1_554     S
V9     V27    10.0   .     S
V9     V28    10.0   1_554     S
V10     V2    10.0   1_545     S
V10     V12    10.0   .     S
V10     V11    10.0   .     S
V10     V28    10.0   .     S
V10     V27    10.0   .     S
V11     V13    10.0   .     S
V11     V51    10.0   .     S
V11     V52    10.0   .     S
V12     V9    10.0   1_556     S
V12     V14    10.0   .     S
V12     V52    10.0   .     S
V12     V51    10.0   1_556     S
V13     V15    10.0   .     S
V13     V16    10.0   1_554     S
V13     V54    10.0   1_554     S
V13     V53    10.0   .     S
V14     V16    10.0   .     S
V14     V15    10.0   .     S
V14     V53    10.0   .     S
V14     V54    10.0   .     S
V15     V7    10.0   1_545     S
V15     V30    10.0   1_455     S
V15     V29    10.0   1_455     S
V16     V8    10.0   1_545     S
V16     V13    10.0   1_556     S
V16     V29    10.0   1_456     S
V16     V30    10.0   1_455     S
V17     V19    10.0   .     S
V17     V20    10.0   1_554     S
V17     V23    10.0   .     S
V17     V42    10.0   1_554     S
V17     V41    10.0   .     S
V18     V20    10.0   .     S
V18     V19    10.0   .     S
V18     V24    10.0   .     S
V18     V41    10.0   .     S
V18     V42    10.0   .     S
V19     V27    10.0   1_565     S
V20     V17    10.0   1_556     S
V20     V28    10.0   1_565     S
V20     V1    10.0   1_556     S
V21     V23    10.0   .     S
V21     V24    10.0   1_554     S
V21     V29    10.0   1_565     S
V21     V7    10.0   1_655     S
V21     V8    10.0   1_654     S
V22     V24    10.0   .     S
V22     V23    10.0   .     S
V22     V30    10.0   1_565     S
V22     V8    10.0   1_655     S
V22     V7    10.0   1_655     S
V23     V46    10.0   .     S
V23     V45    10.0   .     S
V24     V21    10.0   1_556     S
V24     V45    10.0   1_556     S
V24     V46    10.0   .     S
V25     V27    10.0   .     S
V25     V28    10.0   1_554     S
V25     V32    10.0   1_554     S
V25     V39    10.0   .     S
V25     V40    10.0   1_554     S
V26     V28    10.0   .     S
V26     V27    10.0   .     S
V26     V31    10.0   .     S
V26     V40    10.0   .     S
V26     V39    10.0   .     S
V27     V19    10.0   1_545     S
V28     V20    10.0   1_545     S
V28     V25    10.0   1_556     S
V28     V9    10.0   1_556     S
V29     V21    10.0   1_545     S
V29     V32    10.0   1_554     S
V29     V31    10.0   .     S
V29     V16    10.0   1_654     S
V29     V15    10.0   1_655     S
V30     V22    10.0   1_545     S
V30     V31    10.0   .     S
V30     V32    10.0   .     S
V30     V15    10.0   1_655     S
V30     V16    10.0   1_655     S
V31     V35    10.0   .     S
V31     V36    10.0   .     S
V32     V29    10.0   1_556     S
V32     V25    10.0   1_556     S
V32     V36    10.0   .     S
V32     V35    10.0   1_556     S
V33     V35    10.0   .     S
V33     V36    10.0   .     S
V33     V47    10.0   .     S
V33     V56    10.0   1_655     S
V33     V55    10.0   1_655     S
V34     V36    10.0   .     S
V34     V35    10.0   1_556     S
V34     V48    10.0   .     S
V34     V55    10.0   1_656     S
V34     V56    10.0   1_655     S
V35     V34    10.0   1_554     S
V35     V39    10.0   .     S
V35     V32    10.0   1_554     S
V36     V40    10.0   .     S
V37     V39    10.0   .     S
V37     V40    10.0   1_554     S
V37     V43    10.0   .     S
V37     V49    10.0   .     S
V37     V50    10.0   1_554     S
V38     V40    10.0   .     S
V38     V39    10.0   .     S
V38     V44    10.0   .     S
V38     V50    10.0   .     S
V38     V49    10.0   .     S
V40     V37    10.0   1_556     S
V40     V25    10.0   1_556     S
V41     V44    10.0   .     S
V41     V43    10.0   .     S
V41     V46    10.0   .     S
V42     V17    10.0   1_556     S
V42     V43    10.0   1_556     S
V42     V44    10.0   .     S
V42     V45    10.0   1_556     S
V43     V42    10.0   1_554     S
V43     V63    10.0   .     S
V43     V64    10.0   1_554     S
V44     V64    10.0   .     S
V44     V63    10.0   .     S
V45     V24    10.0   1_554     S
V45     V47    10.0   .     S
V45     V48    10.0   1_554     S
V45     V42    10.0   1_554     S
V46     V48    10.0   .     S
V46     V47    10.0   .     S
V47     V59    10.0   1_655     S
V47     V60    10.0   1_655     S
V48     V45    10.0   1_556     S
V48     V60    10.0   1_655     S
V48     V59    10.0   1_656     S
V49     V51    10.0   .     S
V49     V52    10.0   .     S
V49     V63    10.0   .     S
V50     V52    10.0   .     S
V50     V51    10.0   1_556     S
V50     V64    10.0   .     S
V50     V37    10.0   1_556     S
V51     V50    10.0   1_554     S
V51     V54    10.0   1_554     S
V51     V12    10.0   1_554     S
V52     V53    10.0   .     S
V53     V56    10.0   .     S
V53     V55    10.0   .     S
V54     V55    10.0   1_556     S
V54     V56    10.0   .     S
V54     V51    10.0   1_556     S
V54     V13    10.0   1_556     S
V55     V34    10.0   1_454     S
V55     V33    10.0   1_455     S
V55     V54    10.0   1_554     S
V55     V59    10.0   .     S
V56     V33    10.0   1_455     S
V56     V34    10.0   1_455     S
V56     V60    10.0   .     S
V57     V59    10.0   .     S
V57     V60    10.0   .     S
V57     V61    10.0   .     S
V58     V5    10.0   1_556     S
V58     V60    10.0   .     S
V58     V59    10.0   1_556     S
V58     V62    10.0   .     S
V59     V47    10.0   1_455     S
V59     V48    10.0   1_454     S
V59     V58    10.0   1_554     S
V60     V48    10.0   1_455     S
V60     V47    10.0   1_455     S
V61     V4    10.0   1_554     S
V61     V63    10.0   .     S
V61     V64    10.0   1_554     S
V62     V64    10.0   .     S
V62     V63    10.0   .     S
V64     V61    10.0   1_556     S
V64     V43    10.0   1_556     S
