data_wgi
_audit_creation_date              2019-12-31
_audit_creation_method            'Pymatgen'
_symmetry_space_group_name_H-M    'P1'
_symmetry_Int_Tables_number       1
loop_
_symmetry_equiv_pos_as_xyz
  x,y,z
_cell_length_a                    43.1184
_cell_length_b                    43.1184
_cell_length_c                    35.8906
_cell_angle_alpha                 90.0
_cell_angle_beta                 90.0
_cell_angle_gamma                 90.0
loop_
_atom_site_label
_atom_site_type_symbol
_atom_site_fract_x
_atom_site_fract_y
_atom_site_fract_z
V1     V     0.6464   0.676   0.4375
V2     V     0.6464   0.676   0.9375
V3     V     0.8536   0.676   0.0625
V4     V     0.8536   0.676   0.5625
V5     V     0.926   0.6036   0.3125
V6     V     0.926   0.6036   0.8125
V7     V     0.926   0.3964   0.4375
V8     V     0.926   0.3964   0.9375
V9     V     0.574   0.6036   0.1875
V10     V     0.574   0.6036   0.6875
V11     V     0.574   0.3964   0.0625
V12     V     0.574   0.3964   0.5625
V13     V     0.6464   0.324   0.3125
V14     V     0.6464   0.324   0.8125
V15     V     0.8536   0.324   0.1875
V16     V     0.8536   0.324   0.6875
V17     V     0.926   0.1036   0.1875
V18     V     0.926   0.1036   0.6875
V19     V     0.926   0.8964   0.0625
V20     V     0.926   0.8964   0.5625
V21     V     0.6464   0.176   0.0625
V22     V     0.6464   0.176   0.5625
V23     V     0.8536   0.176   0.4375
V24     V     0.8536   0.176   0.9375
V25     V     0.6464   0.824   0.1875
V26     V     0.6464   0.824   0.6875
V27     V     0.8536   0.824   0.3125
V28     V     0.8536   0.824   0.8125
V29     V     0.574   0.1036   0.3125
V30     V     0.574   0.1036   0.8125
V31     V     0.574   0.8964   0.4375
V32     V     0.574   0.8964   0.9375
V33     V     0.426   0.1036   0.0625
V34     V     0.426   0.1036   0.5625
V35     V     0.426   0.8964   0.1875
V36     V     0.426   0.8964   0.6875
V37     V     0.1464   0.824   0.0625
V38     V     0.1464   0.824   0.5625
V39     V     0.3536   0.824   0.4375
V40     V     0.3536   0.824   0.9375
V41     V     0.3536   0.176   0.3125
V42     V     0.3536   0.176   0.8125
V43     V     0.1464   0.176   0.1875
V44     V     0.1464   0.176   0.6875
V45     V     0.074   0.1036   0.4375
V46     V     0.074   0.1036   0.9375
V47     V     0.074   0.8964   0.3125
V48     V     0.074   0.8964   0.8125
V49     V     0.3536   0.676   0.1875
V50     V     0.3536   0.676   0.6875
V51     V     0.1464   0.676   0.3125
V52     V     0.1464   0.676   0.8125
V53     V     0.3536   0.324   0.0625
V54     V     0.3536   0.324   0.5625
V55     V     0.1464   0.324   0.4375
V56     V     0.1464   0.324   0.9375
V57     V     0.426   0.3964   0.3125
V58     V     0.426   0.3964   0.8125
V59     V     0.426   0.6036   0.4375
V60     V     0.426   0.6036   0.9375
V61     V     0.074   0.3964   0.1875
V62     V     0.074   0.3964   0.6875
V63     V     0.074   0.6036   0.0625
V64     V     0.074   0.6036   0.5625
loop_
_geom_bond_atom_site_label_1
_geom_bond_atom_site_label_2
_geom_bond_distance
_geom_bond_site_symmetry_2
_ccdc_geom_bond_type
V1     V4    10.0   .     S
V1     V31    10.0   .     S
V1     V10    10.0   .     S
V1     V9    10.0   .     S
V1     V59    10.0   .     S
V2     V3    10.0   1_556     S
V2     V32    10.0   .     S
V2     V9    10.0   1_556     S
V2     V10    10.0   .     S
V2     V60    10.0   .     S
V3     V2    10.0   1_554     S
V3     V19    10.0   .     S
V3     V5    10.0   .     S
V3     V6    10.0   1_554     S
V3     V63    10.0   1_655     S
V4     V20    10.0   .     S
V4     V6    10.0   .     S
V4     V5    10.0   .     S
V4     V64    10.0   1_655     S
V5     V7    10.0   .     S
V5     V51    10.0   1_655     S
V5     V27    10.0   .     S
V6     V8    10.0   .     S
V6     V52    10.0   1_655     S
V6     V3    10.0   1_556     S
V6     V28    10.0   .     S
V7     V55    10.0   1_655     S
V7     V16    10.0   .     S
V7     V15    10.0   .     S
V7     V23    10.0   .     S
V8     V56    10.0   1_655     S
V8     V15    10.0   1_556     S
V8     V16    10.0   .     S
V8     V24    10.0   .     S
V9     V11    10.0   .     S
V9     V49    10.0   .     S
V9     V2    10.0   1_554     S
V9     V25    10.0   .     S
V10     V12    10.0   .     S
V10     V50    10.0   .     S
V10     V26    10.0   .     S
V11     V53    10.0   .     S
V11     V13    10.0   .     S
V11     V14    10.0   1_554     S
V11     V21    10.0   .     S
V12     V54    10.0   .     S
V12     V14    10.0   .     S
V12     V13    10.0   .     S
V12     V22    10.0   .     S
V13     V15    10.0   .     S
V13     V29    10.0   .     S
V13     V57    10.0   .     S
V14     V16    10.0   .     S
V14     V30    10.0   .     S
V14     V11    10.0   1_556     S
V14     V58    10.0   .     S
V15     V17    10.0   .     S
V15     V8    10.0   1_554     S
V15     V61    10.0   1_655     S
V16     V18    10.0   .     S
V16     V62    10.0   1_655     S
V17     V19    10.0   1_545     S
V17     V43    10.0   1_655     S
V17     V24    10.0   1_554     S
V17     V23    10.0   .     S
V18     V20    10.0   1_545     S
V18     V44    10.0   1_655     S
V18     V23    10.0   .     S
V18     V24    10.0   .     S
V19     V17    10.0   1_565     S
V19     V37    10.0   1_655     S
V19     V27    10.0   .     S
V19     V28    10.0   1_554     S
V20     V18    10.0   1_565     S
V20     V38    10.0   1_655     S
V20     V28    10.0   .     S
V20     V27    10.0   .     S
V21     V24    10.0   1_554     S
V21     V29    10.0   .     S
V21     V30    10.0   1_554     S
V21     V33    10.0   .     S
V22     V23    10.0   .     S
V22     V30    10.0   .     S
V22     V29    10.0   .     S
V22     V34    10.0   .     S
V23     V45    10.0   1_655     S
V24     V17    10.0   1_556     S
V24     V21    10.0   1_556     S
V24     V46    10.0   1_655     S
V25     V27    10.0   .     S
V25     V31    10.0   .     S
V25     V32    10.0   1_554     S
V25     V35    10.0   .     S
V26     V28    10.0   .     S
V26     V32    10.0   .     S
V26     V31    10.0   .     S
V26     V36    10.0   .     S
V27     V47    10.0   1_655     S
V28     V19    10.0   1_556     S
V28     V48    10.0   1_655     S
V29     V31    10.0   1_545     S
V29     V41    10.0   .     S
V30     V32    10.0   1_545     S
V30     V42    10.0   .     S
V30     V21    10.0   1_556     S
V31     V29    10.0   1_565     S
V31     V39    10.0   .     S
V32     V30    10.0   1_565     S
V32     V40    10.0   .     S
V32     V25    10.0   1_556     S
V33     V35    10.0   1_545     S
V33     V41    10.0   .     S
V33     V42    10.0   1_554     S
V33     V53    10.0   .     S
V34     V36    10.0   1_545     S
V34     V42    10.0   .     S
V34     V41    10.0   .     S
V34     V54    10.0   .     S
V35     V33    10.0   1_565     S
V35     V40    10.0   1_554     S
V35     V39    10.0   .     S
V35     V49    10.0   .     S
V36     V34    10.0   1_565     S
V36     V39    10.0   .     S
V36     V40    10.0   .     S
V36     V50    10.0   .     S
V37     V19    10.0   1_455     S
V37     V40    10.0   1_554     S
V37     V63    10.0   .     S
V37     V48    10.0   1_554     S
V37     V47    10.0   .     S
V38     V20    10.0   1_455     S
V38     V39    10.0   .     S
V38     V64    10.0   .     S
V38     V47    10.0   .     S
V38     V48    10.0   .     S
V39     V59    10.0   .     S
V40     V35    10.0   1_556     S
V40     V37    10.0   1_556     S
V40     V60    10.0   .     S
V41     V43    10.0   .     S
V41     V57    10.0   .     S
V42     V33    10.0   1_556     S
V42     V44    10.0   .     S
V42     V58    10.0   .     S
V43     V17    10.0   1_455     S
V43     V61    10.0   .     S
V43     V46    10.0   1_554     S
V43     V45    10.0   .     S
V44     V18    10.0   1_455     S
V44     V62    10.0   .     S
V44     V45    10.0   .     S
V44     V46    10.0   .     S
V45     V47    10.0   1_545     S
V45     V23    10.0   1_455     S
V45     V55    10.0   .     S
V46     V43    10.0   1_556     S
V46     V48    10.0   1_545     S
V46     V24    10.0   1_455     S
V46     V56    10.0   .     S
V47     V45    10.0   1_565     S
V47     V27    10.0   1_455     S
V47     V51    10.0   .     S
V48     V46    10.0   1_565     S
V48     V28    10.0   1_455     S
V48     V37    10.0   1_556     S
V48     V52    10.0   .     S
V49     V51    10.0   .     S
V49     V59    10.0   .     S
V49     V60    10.0   1_554     S
V50     V52    10.0   .     S
V50     V60    10.0   .     S
V50     V59    10.0   .     S
V51     V5    10.0   1_455     S
V51     V63    10.0   .     S
V51     V64    10.0   .     S
V52     V6    10.0   1_455     S
V52     V64    10.0   .     S
V52     V63    10.0   1_556     S
V53     V56    10.0   1_554     S
V53     V58    10.0   1_554     S
V53     V57    10.0   .     S
V54     V55    10.0   .     S
V54     V57    10.0   .     S
V54     V58    10.0   .     S
V55     V7    10.0   1_455     S
V55     V61    10.0   .     S
V55     V62    10.0   .     S
V56     V8    10.0   1_455     S
V56     V53    10.0   1_556     S
V56     V62    10.0   .     S
V56     V61    10.0   1_556     S
V57     V59    10.0   .     S
V58     V60    10.0   .     S
V58     V53    10.0   1_556     S
V60     V49    10.0   1_556     S
V61     V63    10.0   .     S
V61     V15    10.0   1_455     S
V61     V56    10.0   1_554     S
V62     V64    10.0   .     S
V62     V16    10.0   1_455     S
V63     V3    10.0   1_455     S
V63     V52    10.0   1_554     S
V64     V4    10.0   1_455     S
