data_wgj
_audit_creation_date              2019-12-31
_audit_creation_method            'Pymatgen'
_symmetry_space_group_name_H-M    'P1'
_symmetry_Int_Tables_number       1
loop_
_symmetry_equiv_pos_as_xyz
  x,y,z
_cell_length_a                    41.7364
_cell_length_b                    41.7364
_cell_length_c                    38.6982
_cell_angle_alpha                 90.0
_cell_angle_beta                 90.0
_cell_angle_gamma                 90.0
loop_
_atom_site_label
_atom_site_type_symbol
_atom_site_fract_x
_atom_site_fract_y
_atom_site_fract_z
V1     V     0.8439   0.1883   0.4198
V2     V     0.8439   0.1883   0.9198
V3     V     0.6561   0.1883   0.0802
V4     V     0.6561   0.1883   0.5802
V5     V     0.8439   0.3117   0.1698
V6     V     0.8439   0.3117   0.6698
V7     V     0.6561   0.3117   0.3302
V8     V     0.6561   0.3117   0.8302
V9     V     0.0617   0.9061   0.2948
V10     V     0.0617   0.9061   0.7948
V11     V     0.0617   0.0939   0.4552
V12     V     0.0617   0.0939   0.9552
V13     V     0.9383   0.9061   0.0448
V14     V     0.9383   0.9061   0.5448
V15     V     0.9383   0.0939   0.2052
V16     V     0.9383   0.0939   0.7052
V17     V     0.3439   0.8117   0.4198
V18     V     0.3439   0.8117   0.9198
V19     V     0.1561   0.8117   0.0802
V20     V     0.1561   0.8117   0.5802
V21     V     0.3439   0.6883   0.1698
V22     V     0.3439   0.6883   0.6698
V23     V     0.1561   0.6883   0.3302
V24     V     0.1561   0.6883   0.8302
V25     V     0.4383   0.9061   0.2052
V26     V     0.4383   0.9061   0.7052
V27     V     0.4383   0.0939   0.0448
V28     V     0.4383   0.0939   0.5448
V29     V     0.5617   0.0939   0.2948
V30     V     0.5617   0.0939   0.7948
V31     V     0.5617   0.9061   0.4552
V32     V     0.5617   0.9061   0.9552
V33     V     0.8439   0.8117   0.3302
V34     V     0.8439   0.8117   0.8302
V35     V     0.6561   0.8117   0.1698
V36     V     0.6561   0.8117   0.6698
V37     V     0.8439   0.6883   0.0802
V38     V     0.8439   0.6883   0.5802
V39     V     0.6561   0.6883   0.4198
V40     V     0.6561   0.6883   0.9198
V41     V     0.0617   0.5939   0.0448
V42     V     0.0617   0.5939   0.5448
V43     V     0.0617   0.4061   0.2052
V44     V     0.0617   0.4061   0.7052
V45     V     0.9383   0.4061   0.4552
V46     V     0.9383   0.4061   0.9552
V47     V     0.9383   0.5939   0.2948
V48     V     0.9383   0.5939   0.7948
V49     V     0.1561   0.3117   0.4198
V50     V     0.1561   0.3117   0.9198
V51     V     0.3439   0.3117   0.0802
V52     V     0.3439   0.3117   0.5802
V53     V     0.1561   0.1883   0.1698
V54     V     0.1561   0.1883   0.6698
V55     V     0.3439   0.1883   0.3302
V56     V     0.3439   0.1883   0.8302
V57     V     0.5617   0.5939   0.2052
V58     V     0.5617   0.5939   0.7052
V59     V     0.5617   0.4061   0.0448
V60     V     0.5617   0.4061   0.5448
V61     V     0.4383   0.4061   0.2948
V62     V     0.4383   0.4061   0.7948
V63     V     0.4383   0.5939   0.4552
V64     V     0.4383   0.5939   0.9552
loop_
_geom_bond_atom_site_label_1
_geom_bond_atom_site_label_2
_geom_bond_distance
_geom_bond_site_symmetry_2
_ccdc_geom_bond_type
V1     V11    10.0   1_655     S
V1     V4    10.0   .     S
V1     V7    10.0   .     S
V1     V45    10.0   .     S
V1     V15    10.0   .     S
V2     V12    10.0   1_655     S
V2     V3    10.0   1_556     S
V2     V8    10.0   .     S
V2     V46    10.0   .     S
V2     V16    10.0   .     S
V3     V27    10.0   .     S
V3     V2    10.0   1_554     S
V3     V5    10.0   .     S
V3     V59    10.0   .     S
V3     V29    10.0   .     S
V4     V28    10.0   .     S
V4     V6    10.0   .     S
V4     V60    10.0   .     S
V4     V30    10.0   .     S
V5     V43    10.0   1_655     S
V5     V7    10.0   .     S
V5     V46    10.0   1_554     S
V5     V15    10.0   .     S
V6     V44    10.0   1_655     S
V6     V8    10.0   .     S
V6     V45    10.0   .     S
V6     V16    10.0   .     S
V7     V61    10.0   .     S
V7     V29    10.0   .     S
V7     V60    10.0   .     S
V8     V62    10.0   .     S
V8     V30    10.0   .     S
V8     V59    10.0   1_556     S
V9     V23    10.0   .     S
V9     V11    10.0   1_565     S
V9     V15    10.0   1_465     S
V9     V19    10.0   .     S
V9     V33    10.0   1_455     S
V10     V24    10.0   .     S
V10     V12    10.0   1_565     S
V10     V16    10.0   1_465     S
V10     V20    10.0   .     S
V10     V34    10.0   1_455     S
V11     V1    10.0   1_455     S
V11     V49    10.0   .     S
V11     V9    10.0   1_545     S
V11     V14    10.0   1_445     S
V11     V54    10.0   .     S
V12     V2    10.0   1_455     S
V12     V50    10.0   .     S
V12     V10    10.0   1_545     S
V12     V13    10.0   1_446     S
V12     V53    10.0   1_556     S
V13     V37    10.0   .     S
V13     V15    10.0   1_565     S
V13     V12    10.0   1_664     S
V13     V19    10.0   1_655     S
V13     V34    10.0   1_554     S
V14     V38    10.0   .     S
V14     V16    10.0   1_565     S
V14     V11    10.0   1_665     S
V14     V20    10.0   1_655     S
V14     V33    10.0   .     S
V15     V13    10.0   1_545     S
V15     V9    10.0   1_645     S
V15     V53    10.0   1_655     S
V16     V14    10.0   1_545     S
V16     V10    10.0   1_645     S
V16     V54    10.0   1_655     S
V17     V31    10.0   .     S
V17     V20    10.0   .     S
V17     V23    10.0   .     S
V17     V25    10.0   .     S
V17     V63    10.0   .     S
V18     V32    10.0   .     S
V18     V19    10.0   1_556     S
V18     V24    10.0   .     S
V18     V26    10.0   .     S
V18     V64    10.0   .     S
V19     V13    10.0   1_455     S
V19     V18    10.0   1_554     S
V19     V21    10.0   .     S
V19     V41    10.0   .     S
V20     V14    10.0   1_455     S
V20     V22    10.0   .     S
V20     V42    10.0   .     S
V21     V57    10.0   .     S
V21     V23    10.0   .     S
V21     V25    10.0   .     S
V21     V64    10.0   1_554     S
V22     V58    10.0   .     S
V22     V24    10.0   .     S
V22     V26    10.0   .     S
V22     V63    10.0   .     S
V23     V47    10.0   1_455     S
V23     V42    10.0   .     S
V24     V48    10.0   1_455     S
V24     V41    10.0   1_556     S
V25     V27    10.0   1_565     S
V25     V29    10.0   1_565     S
V25     V35    10.0   .     S
V26     V28    10.0   1_565     S
V26     V30    10.0   1_565     S
V26     V36    10.0   .     S
V27     V51    10.0   .     S
V27     V25    10.0   1_545     S
V27     V32    10.0   1_544     S
V27     V56    10.0   1_554     S
V28     V52    10.0   .     S
V28     V26    10.0   1_545     S
V28     V31    10.0   1_545     S
V28     V55    10.0   .     S
V29     V31    10.0   1_545     S
V29     V25    10.0   1_545     S
V29     V55    10.0   .     S
V30     V32    10.0   1_545     S
V30     V26    10.0   1_545     S
V30     V56    10.0   .     S
V31     V39    10.0   .     S
V31     V29    10.0   1_565     S
V31     V28    10.0   1_565     S
V31     V36    10.0   .     S
V32     V40    10.0   .     S
V32     V30    10.0   1_565     S
V32     V27    10.0   1_566     S
V32     V35    10.0   1_556     S
V33     V9    10.0   1_655     S
V33     V35    10.0   .     S
V33     V39    10.0   .     S
V33     V47    10.0   .     S
V34     V10    10.0   1_655     S
V34     V36    10.0   .     S
V34     V40    10.0   .     S
V34     V48    10.0   .     S
V34     V13    10.0   1_556     S
V35     V37    10.0   .     S
V35     V57    10.0   .     S
V35     V32    10.0   1_554     S
V36     V38    10.0   .     S
V36     V58    10.0   .     S
V37     V41    10.0   1_655     S
V37     V40    10.0   1_554     S
V37     V47    10.0   .     S
V38     V42    10.0   1_655     S
V38     V39    10.0   .     S
V38     V48    10.0   .     S
V39     V63    10.0   .     S
V39     V57    10.0   .     S
V40     V64    10.0   .     S
V40     V37    10.0   1_556     S
V40     V58    10.0   .     S
V41     V37    10.0   1_455     S
V41     V43    10.0   .     S
V41     V46    10.0   1_454     S
V41     V24    10.0   1_554     S
V42     V38    10.0   1_455     S
V42     V44    10.0   .     S
V42     V45    10.0   1_455     S
V43     V5    10.0   1_455     S
V43     V53    10.0   .     S
V43     V47    10.0   1_455     S
V43     V49    10.0   .     S
V44     V6    10.0   1_455     S
V44     V54    10.0   .     S
V44     V48    10.0   1_455     S
V44     V50    10.0   .     S
V45     V47    10.0   .     S
V45     V42    10.0   1_655     S
V45     V49    10.0   1_655     S
V46     V5    10.0   1_556     S
V46     V48    10.0   .     S
V46     V41    10.0   1_656     S
V46     V50    10.0   1_655     S
V47     V23    10.0   1_655     S
V47     V43    10.0   1_655     S
V48     V24    10.0   1_655     S
V48     V44    10.0   1_655     S
V49     V45    10.0   1_455     S
V49     V52    10.0   .     S
V49     V55    10.0   .     S
V50     V46    10.0   1_455     S
V50     V51    10.0   1_556     S
V50     V56    10.0   .     S
V51     V59    10.0   .     S
V51     V50    10.0   1_554     S
V51     V53    10.0   .     S
V51     V61    10.0   .     S
V52     V60    10.0   .     S
V52     V54    10.0   .     S
V52     V62    10.0   .     S
V53     V15    10.0   1_455     S
V53     V55    10.0   .     S
V53     V12    10.0   1_554     S
V54     V16    10.0   1_455     S
V54     V56    10.0   .     S
V55     V61    10.0   .     S
V56     V27    10.0   1_556     S
V56     V62    10.0   .     S
V57     V59    10.0   .     S
V57     V61    10.0   .     S
V58     V60    10.0   .     S
V58     V62    10.0   .     S
V59     V64    10.0   1_554     S
V59     V8    10.0   1_554     S
V60     V63    10.0   .     S
V61     V63    10.0   .     S
V62     V64    10.0   .     S
V64     V59    10.0   1_556     S
V64     V21    10.0   1_556     S
