data_wgn
_audit_creation_date              2019-12-31
_audit_creation_method            'Pymatgen'
_symmetry_space_group_name_H-M    'P1'
_symmetry_Int_Tables_number       1
loop_
_symmetry_equiv_pos_as_xyz
  x,y,z
_cell_length_a                    39.9386
_cell_length_b                    39.9386
_cell_length_c                    73.7393
_cell_angle_alpha                 90.0
_cell_angle_beta                 90.0
_cell_angle_gamma                 90.0
loop_
_atom_site_label
_atom_site_type_symbol
_atom_site_fract_x
_atom_site_fract_y
_atom_site_fract_z
V1     V     0.0416   0.0069   0.5638
V2     V     0.0416   0.5069   0.5638
V3     V     0.5416   0.0069   0.5638
V4     V     0.5416   0.5069   0.5638
V5     V     0.4584   0.4931   0.4362
V6     V     0.4584   0.9931   0.4362
V7     V     0.9583   0.4931   0.4362
V8     V     0.9583   0.9931   0.4362
V9     V     0.4584   0.2431   0.5638
V10     V     0.4584   0.7431   0.5638
V11     V     0.9583   0.2431   0.5638
V12     V     0.9583   0.7431   0.5638
V13     V     0.0416   0.2569   0.4362
V14     V     0.0416   0.7569   0.4362
V15     V     0.5416   0.2569   0.4362
V16     V     0.5416   0.7569   0.4362
V17     V     0.2916   0.4931   0.5638
V18     V     0.2916   0.9931   0.5638
V19     V     0.7916   0.4931   0.5638
V20     V     0.7916   0.9931   0.5638
V21     V     0.2084   0.0069   0.4362
V22     V     0.2084   0.5069   0.4362
V23     V     0.7084   0.0069   0.4362
V24     V     0.7084   0.5069   0.4362
V25     V     0.2916   0.2431   0.4362
V26     V     0.2916   0.7431   0.4362
V27     V     0.7916   0.2431   0.4362
V28     V     0.7916   0.7431   0.4362
V29     V     0.2084   0.2569   0.5638
V30     V     0.2084   0.7569   0.5638
V31     V     0.7084   0.2569   0.5638
V32     V     0.7084   0.7569   0.5638
V33     V     0.1319   0.3334   0.6862
V34     V     0.1319   0.8334   0.6862
V35     V     0.6319   0.3334   0.6862
V36     V     0.6319   0.8334   0.6862
V37     V     0.1181   0.4166   0.8138
V38     V     0.1181   0.9166   0.8138
V39     V     0.6181   0.4166   0.8138
V40     V     0.6181   0.9166   0.8138
V41     V     0.3681   0.4166   0.6862
V42     V     0.3681   0.9166   0.6862
V43     V     0.8681   0.4166   0.6862
V44     V     0.8681   0.9166   0.6862
V45     V     0.3819   0.3334   0.8138
V46     V     0.3819   0.8334   0.8138
V47     V     0.8819   0.3334   0.8138
V48     V     0.8819   0.8334   0.8138
V49     V     0.1181   0.0833   0.6862
V50     V     0.1181   0.5834   0.6862
V51     V     0.6181   0.0833   0.6862
V52     V     0.6181   0.5834   0.6862
V53     V     0.1319   0.1666   0.8138
V54     V     0.1319   0.6666   0.8138
V55     V     0.6319   0.1666   0.8138
V56     V     0.6319   0.6666   0.8138
V57     V     0.3819   0.1666   0.6862
V58     V     0.3819   0.6666   0.6862
V59     V     0.8819   0.1666   0.6862
V60     V     0.8819   0.6666   0.6862
V61     V     0.3681   0.0833   0.8138
V62     V     0.3681   0.5834   0.8138
V63     V     0.8681   0.0833   0.8138
V64     V     0.8681   0.5834   0.8138
V65     V     0.0416   0.2431   0.0638
V66     V     0.0416   0.7431   0.0638
V67     V     0.5416   0.2431   0.0638
V68     V     0.5416   0.7431   0.0638
V69     V     0.4584   0.2569   0.9362
V70     V     0.4584   0.7569   0.9362
V71     V     0.9583   0.2569   0.9362
V72     V     0.9583   0.7569   0.9362
V73     V     0.4584   0.0069   0.0638
V74     V     0.4584   0.5069   0.0638
V75     V     0.9583   0.0069   0.0638
V76     V     0.9583   0.5069   0.0638
V77     V     0.0416   0.4931   0.9362
V78     V     0.0416   0.9931   0.9362
V79     V     0.5416   0.4931   0.9362
V80     V     0.5416   0.9931   0.9362
V81     V     0.2916   0.2569   0.0638
V82     V     0.2916   0.7569   0.0638
V83     V     0.7916   0.2569   0.0638
V84     V     0.7916   0.7569   0.0638
V85     V     0.2084   0.2431   0.9362
V86     V     0.2084   0.7431   0.9362
V87     V     0.7084   0.2431   0.9362
V88     V     0.7084   0.7431   0.9362
V89     V     0.2084   0.4931   0.0638
V90     V     0.2084   0.9931   0.0638
V91     V     0.7084   0.4931   0.0638
V92     V     0.7084   0.9931   0.0638
V93     V     0.2916   0.0069   0.9362
V94     V     0.2916   0.5069   0.9362
V95     V     0.7916   0.0069   0.9362
V96     V     0.7916   0.5069   0.9362
V97     V     0.1319   0.4166   0.1862
V98     V     0.1319   0.9166   0.1862
V99     V     0.6319   0.4166   0.1862
V100     V     0.6319   0.9166   0.1862
V101     V     0.1181   0.3334   0.3138
V102     V     0.1181   0.8334   0.3138
V103     V     0.6181   0.3334   0.3138
V104     V     0.6181   0.8334   0.3138
V105     V     0.3681   0.3334   0.1862
V106     V     0.3681   0.8334   0.1862
V107     V     0.8681   0.3334   0.1862
V108     V     0.8681   0.8334   0.1862
V109     V     0.3819   0.4166   0.3138
V110     V     0.3819   0.9166   0.3138
V111     V     0.8819   0.4166   0.3138
V112     V     0.8819   0.9166   0.3138
V113     V     0.1181   0.1666   0.1862
V114     V     0.1181   0.6666   0.1862
V115     V     0.6181   0.1666   0.1862
V116     V     0.6181   0.6666   0.1862
V117     V     0.1319   0.0833   0.3138
V118     V     0.1319   0.5834   0.3138
V119     V     0.6319   0.0833   0.3138
V120     V     0.6319   0.5834   0.3138
V121     V     0.3681   0.1666   0.3138
V122     V     0.3681   0.6666   0.3138
V123     V     0.8681   0.1666   0.3138
V124     V     0.8681   0.6666   0.3138
V125     V     0.3819   0.0833   0.1862
V126     V     0.3819   0.5834   0.1862
V127     V     0.8819   0.0833   0.1862
V128     V     0.8819   0.5834   0.1862
loop_
_geom_bond_atom_site_label_1
_geom_bond_atom_site_label_2
_geom_bond_distance
_geom_bond_site_symmetry_2
_ccdc_geom_bond_type
V1     V8    10.0   1_445     S
V1     V11    10.0   1_455     S
V1     V18    10.0   1_545     S
V1     V20    10.0   1_445     S
V1     V49    10.0   .     S
V2     V7    10.0   1_455     S
V2     V12    10.0   1_455     S
V2     V17    10.0   .     S
V2     V19    10.0   1_455     S
V2     V50    10.0   .     S
V3     V6    10.0   1_545     S
V3     V9    10.0   .     S
V3     V20    10.0   1_545     S
V3     V18    10.0   1_545     S
V3     V51    10.0   .     S
V4     V5    10.0   .     S
V4     V10    10.0   .     S
V4     V19    10.0   .     S
V4     V17    10.0   .     S
V4     V52    10.0   .     S
V5     V15    10.0   .     S
V5     V22    10.0   .     S
V5     V24    10.0   .     S
V5     V109    10.0   .     S
V6     V3    10.0   1_565     S
V6     V16    10.0   .     S
V6     V21    10.0   1_565     S
V6     V23    10.0   1_565     S
V6     V110    10.0   .     S
V7     V2    10.0   1_655     S
V7     V13    10.0   1_655     S
V7     V24    10.0   .     S
V7     V22    10.0   1_655     S
V7     V111    10.0   .     S
V8     V1    10.0   1_665     S
V8     V14    10.0   1_655     S
V8     V23    10.0   1_565     S
V8     V21    10.0   1_665     S
V8     V112    10.0   .     S
V9     V15    10.0   .     S
V9     V29    10.0   .     S
V9     V31    10.0   .     S
V9     V57    10.0   .     S
V10     V16    10.0   .     S
V10     V30    10.0   .     S
V10     V32    10.0   .     S
V10     V58    10.0   .     S
V11     V13    10.0   1_655     S
V11     V1    10.0   1_655     S
V11     V31    10.0   .     S
V11     V29    10.0   1_655     S
V11     V59    10.0   .     S
V12     V14    10.0   1_655     S
V12     V2    10.0   1_655     S
V12     V32    10.0   .     S
V12     V30    10.0   1_655     S
V12     V60    10.0   .     S
V13     V11    10.0   1_455     S
V13     V7    10.0   1_455     S
V13     V27    10.0   1_455     S
V13     V25    10.0   .     S
V13     V101    10.0   .     S
V14     V12    10.0   1_455     S
V14     V8    10.0   1_455     S
V14     V28    10.0   1_455     S
V14     V26    10.0   .     S
V14     V102    10.0   .     S
V15     V25    10.0   .     S
V15     V27    10.0   .     S
V15     V103    10.0   .     S
V16     V26    10.0   .     S
V16     V28    10.0   .     S
V16     V104    10.0   .     S
V17     V22    10.0   .     S
V17     V29    10.0   .     S
V17     V41    10.0   .     S
V18     V21    10.0   1_565     S
V18     V30    10.0   .     S
V18     V1    10.0   1_565     S
V18     V3    10.0   1_565     S
V18     V42    10.0   .     S
V19     V24    10.0   .     S
V19     V31    10.0   .     S
V19     V2    10.0   1_655     S
V19     V43    10.0   .     S
V20     V23    10.0   1_565     S
V20     V32    10.0   .     S
V20     V3    10.0   1_565     S
V20     V1    10.0   1_665     S
V20     V44    10.0   .     S
V21     V6    10.0   1_545     S
V21     V18    10.0   1_545     S
V21     V25    10.0   .     S
V21     V8    10.0   1_445     S
V21     V117    10.0   .     S
V22     V26    10.0   .     S
V22     V7    10.0   1_455     S
V22     V118    10.0   .     S
V23     V8    10.0   1_545     S
V23     V20    10.0   1_545     S
V23     V27    10.0   .     S
V23     V6    10.0   1_545     S
V23     V119    10.0   .     S
V24     V28    10.0   .     S
V24     V120    10.0   .     S
V25     V29    10.0   .     S
V25     V121    10.0   .     S
V26     V30    10.0   .     S
V26     V122    10.0   .     S
V27     V31    10.0   .     S
V27     V13    10.0   1_655     S
V27     V123    10.0   .     S
V28     V32    10.0   .     S
V28     V14    10.0   1_655     S
V28     V124    10.0   .     S
V29     V11    10.0   1_455     S
V29     V33    10.0   .     S
V30     V12    10.0   1_455     S
V30     V34    10.0   .     S
V31     V35    10.0   .     S
V32     V36    10.0   .     S
V33     V37    10.0   .     S
V33     V41    10.0   .     S
V33     V49    10.0   .     S
V33     V50    10.0   .     S
V34     V38    10.0   .     S
V34     V42    10.0   .     S
V34     V50    10.0   .     S
V34     V49    10.0   1_565     S
V35     V39    10.0   .     S
V35     V43    10.0   .     S
V35     V51    10.0   .     S
V35     V52    10.0   .     S
V36     V40    10.0   .     S
V36     V44    10.0   .     S
V36     V52    10.0   .     S
V36     V51    10.0   1_565     S
V37     V47    10.0   1_455     S
V37     V53    10.0   .     S
V37     V54    10.0   .     S
V37     V77    10.0   .     S
V38     V48    10.0   1_455     S
V38     V54    10.0   .     S
V38     V53    10.0   1_565     S
V38     V78    10.0   .     S
V39     V45    10.0   .     S
V39     V55    10.0   .     S
V39     V56    10.0   .     S
V39     V79    10.0   .     S
V40     V46    10.0   .     S
V40     V56    10.0   .     S
V40     V55    10.0   1_565     S
V40     V80    10.0   .     S
V41     V45    10.0   .     S
V41     V57    10.0   .     S
V41     V58    10.0   .     S
V42     V46    10.0   .     S
V42     V58    10.0   .     S
V42     V57    10.0   1_565     S
V43     V47    10.0   .     S
V43     V59    10.0   .     S
V43     V60    10.0   .     S
V44     V48    10.0   .     S
V44     V60    10.0   .     S
V44     V59    10.0   1_565     S
V45     V61    10.0   .     S
V45     V62    10.0   .     S
V45     V69    10.0   .     S
V46     V62    10.0   .     S
V46     V61    10.0   1_565     S
V46     V70    10.0   .     S
V47     V37    10.0   1_655     S
V47     V63    10.0   .     S
V47     V64    10.0   .     S
V47     V71    10.0   .     S
V48     V38    10.0   1_655     S
V48     V64    10.0   .     S
V48     V63    10.0   1_565     S
V48     V72    10.0   .     S
V49     V53    10.0   .     S
V49     V59    10.0   1_455     S
V49     V34    10.0   1_545     S
V50     V54    10.0   .     S
V50     V60    10.0   1_455     S
V51     V55    10.0   .     S
V51     V57    10.0   .     S
V51     V36    10.0   1_545     S
V52     V56    10.0   .     S
V52     V58    10.0   .     S
V53     V61    10.0   .     S
V53     V38    10.0   1_545     S
V53     V85    10.0   .     S
V54     V62    10.0   .     S
V54     V86    10.0   .     S
V55     V63    10.0   .     S
V55     V40    10.0   1_545     S
V55     V87    10.0   .     S
V56     V64    10.0   .     S
V56     V88    10.0   .     S
V57     V61    10.0   .     S
V57     V42    10.0   1_545     S
V58     V62    10.0   .     S
V59     V63    10.0   .     S
V59     V49    10.0   1_655     S
V59     V44    10.0   1_545     S
V60     V64    10.0   .     S
V60     V50    10.0   1_655     S
V61     V46    10.0   1_545     S
V61     V93    10.0   .     S
V62     V94    10.0   .     S
V63     V48    10.0   1_545     S
V63     V95    10.0   .     S
V64     V96    10.0   .     S
V65     V71    10.0   1_454     S
V65     V75    10.0   1_455     S
V65     V83    10.0   1_455     S
V65     V81    10.0   .     S
V65     V113    10.0   .     S
V66     V72    10.0   1_454     S
V66     V76    10.0   1_455     S
V66     V84    10.0   1_455     S
V66     V82    10.0   .     S
V66     V114    10.0   .     S
V67     V69    10.0   1_554     S
V67     V73    10.0   .     S
V67     V81    10.0   .     S
V67     V83    10.0   .     S
V67     V115    10.0   .     S
V68     V70    10.0   1_554     S
V68     V74    10.0   .     S
V68     V82    10.0   .     S
V68     V84    10.0   .     S
V68     V116    10.0   .     S
V69     V67    10.0   1_556     S
V69     V79    10.0   .     S
V69     V85    10.0   .     S
V69     V87    10.0   .     S
V70     V68    10.0   1_556     S
V70     V80    10.0   .     S
V70     V86    10.0   .     S
V70     V88    10.0   .     S
V71     V65    10.0   1_656     S
V71     V77    10.0   1_655     S
V71     V87    10.0   .     S
V71     V85    10.0   1_655     S
V72     V66    10.0   1_656     S
V72     V78    10.0   1_655     S
V72     V88    10.0   .     S
V72     V86    10.0   1_655     S
V73     V80    10.0   1_544     S
V73     V90    10.0   1_545     S
V73     V92    10.0   1_545     S
V73     V125    10.0   .     S
V74     V79    10.0   1_554     S
V74     V89    10.0   .     S
V74     V91    10.0   .     S
V74     V126    10.0   .     S
V75     V78    10.0   1_644     S
V75     V65    10.0   1_655     S
V75     V92    10.0   1_545     S
V75     V90    10.0   1_645     S
V75     V127    10.0   .     S
V76     V77    10.0   1_654     S
V76     V66    10.0   1_655     S
V76     V91    10.0   .     S
V76     V89    10.0   1_655     S
V76     V128    10.0   .     S
V77     V76    10.0   1_456     S
V77     V71    10.0   1_455     S
V77     V94    10.0   .     S
V77     V96    10.0   1_455     S
V78     V75    10.0   1_466     S
V78     V72    10.0   1_455     S
V78     V93    10.0   1_565     S
V78     V95    10.0   1_465     S
V79     V74    10.0   1_556     S
V79     V96    10.0   .     S
V79     V94    10.0   .     S
V80     V73    10.0   1_566     S
V80     V95    10.0   1_565     S
V80     V93    10.0   1_565     S
V81     V85    10.0   1_554     S
V81     V89    10.0   .     S
V81     V105    10.0   .     S
V82     V86    10.0   1_554     S
V82     V90    10.0   .     S
V82     V106    10.0   .     S
V83     V87    10.0   1_554     S
V83     V91    10.0   .     S
V83     V65    10.0   1_655     S
V83     V107    10.0   .     S
V84     V88    10.0   1_554     S
V84     V92    10.0   .     S
V84     V66    10.0   1_655     S
V84     V108    10.0   .     S
V85     V81    10.0   1_556     S
V85     V93    10.0   .     S
V85     V71    10.0   1_455     S
V86     V82    10.0   1_556     S
V86     V94    10.0   .     S
V86     V72    10.0   1_455     S
V87     V83    10.0   1_556     S
V87     V95    10.0   .     S
V88     V84    10.0   1_556     S
V88     V96    10.0   .     S
V89     V94    10.0   1_554     S
V89     V76    10.0   1_455     S
V89     V97    10.0   .     S
V90     V73    10.0   1_565     S
V90     V93    10.0   1_564     S
V90     V75    10.0   1_465     S
V90     V98    10.0   .     S
V91     V96    10.0   1_554     S
V91     V99    10.0   .     S
V92     V75    10.0   1_565     S
V92     V95    10.0   1_564     S
V92     V73    10.0   1_565     S
V92     V100    10.0   .     S
V93     V90    10.0   1_546     S
V93     V78    10.0   1_545     S
V93     V80    10.0   1_545     S
V94     V89    10.0   1_556     S
V95     V92    10.0   1_546     S
V95     V80    10.0   1_545     S
V95     V78    10.0   1_645     S
V96     V91    10.0   1_556     S
V96     V77    10.0   1_655     S
V97     V101    10.0   .     S
V97     V105    10.0   .     S
V97     V113    10.0   .     S
V97     V114    10.0   .     S
V98     V102    10.0   .     S
V98     V106    10.0   .     S
V98     V114    10.0   .     S
V98     V113    10.0   1_565     S
V99     V103    10.0   .     S
V99     V107    10.0   .     S
V99     V115    10.0   .     S
V99     V116    10.0   .     S
V100     V104    10.0   .     S
V100     V108    10.0   .     S
V100     V116    10.0   .     S
V100     V115    10.0   1_565     S
V101     V111    10.0   1_455     S
V101     V117    10.0   .     S
V101     V118    10.0   .     S
V102     V112    10.0   1_455     S
V102     V118    10.0   .     S
V102     V117    10.0   1_565     S
V103     V109    10.0   .     S
V103     V119    10.0   .     S
V103     V120    10.0   .     S
V104     V110    10.0   .     S
V104     V120    10.0   .     S
V104     V119    10.0   1_565     S
V105     V109    10.0   .     S
V105     V125    10.0   .     S
V105     V126    10.0   .     S
V106     V110    10.0   .     S
V106     V126    10.0   .     S
V106     V125    10.0   1_565     S
V107     V111    10.0   .     S
V107     V127    10.0   .     S
V107     V128    10.0   .     S
V108     V112    10.0   .     S
V108     V128    10.0   .     S
V108     V127    10.0   1_565     S
V109     V121    10.0   .     S
V109     V122    10.0   .     S
V110     V122    10.0   .     S
V110     V121    10.0   1_565     S
V111     V101    10.0   1_655     S
V111     V123    10.0   .     S
V111     V124    10.0   .     S
V112     V102    10.0   1_655     S
V112     V124    10.0   .     S
V112     V123    10.0   1_565     S
V113     V117    10.0   .     S
V113     V127    10.0   1_455     S
V113     V98    10.0   1_545     S
V114     V118    10.0   .     S
V114     V128    10.0   1_455     S
V115     V119    10.0   .     S
V115     V125    10.0   .     S
V115     V100    10.0   1_545     S
V116     V120    10.0   .     S
V116     V126    10.0   .     S
V117     V121    10.0   .     S
V117     V102    10.0   1_545     S
V118     V122    10.0   .     S
V119     V123    10.0   .     S
V119     V104    10.0   1_545     S
V120     V124    10.0   .     S
V121     V125    10.0   .     S
V121     V110    10.0   1_545     S
V122     V126    10.0   .     S
V123     V127    10.0   .     S
V123     V112    10.0   1_545     S
V124     V128    10.0   .     S
V125     V106    10.0   1_545     S
V127     V113    10.0   1_655     S
V127     V108    10.0   1_545     S
V128     V114    10.0   1_655     S
