data_wgo
_audit_creation_date              2019-12-31
_audit_creation_method            'Pymatgen'
_symmetry_space_group_name_H-M    'P1'
_symmetry_Int_Tables_number       1
loop_
_symmetry_equiv_pos_as_xyz
  x,y,z
_cell_length_a                    39.9726
_cell_length_b                    39.9726
_cell_length_c                    72.1178
_cell_angle_alpha                 90.0
_cell_angle_beta                 90.0
_cell_angle_gamma                 90.0
loop_
_atom_site_label
_atom_site_type_symbol
_atom_site_fract_x
_atom_site_fract_y
_atom_site_fract_z
V1     V     0.1204   0.159   0.8167
V2     V     0.1204   0.659   0.8167
V3     V     0.6204   0.159   0.8167
V4     V     0.6204   0.659   0.8167
V5     V     0.1296   0.091   0.6833
V6     V     0.1296   0.591   0.6833
V7     V     0.6296   0.091   0.6833
V8     V     0.6296   0.591   0.6833
V9     V     0.1296   0.409   0.8167
V10     V     0.1296   0.909   0.8167
V11     V     0.6296   0.409   0.8167
V12     V     0.6296   0.909   0.8167
V13     V     0.1204   0.341   0.6833
V14     V     0.1204   0.841   0.6833
V15     V     0.6204   0.341   0.6833
V16     V     0.6204   0.841   0.6833
V17     V     0.3704   0.341   0.8167
V18     V     0.3704   0.841   0.8167
V19     V     0.8704   0.341   0.8167
V20     V     0.8704   0.841   0.8167
V21     V     0.3796   0.409   0.6833
V22     V     0.3796   0.909   0.6833
V23     V     0.8796   0.409   0.6833
V24     V     0.8796   0.909   0.6833
V25     V     0.3796   0.091   0.8167
V26     V     0.3796   0.591   0.8167
V27     V     0.8796   0.091   0.8167
V28     V     0.8796   0.591   0.8167
V29     V     0.3704   0.159   0.6833
V30     V     0.3704   0.659   0.6833
V31     V     0.8704   0.159   0.6833
V32     V     0.8704   0.659   0.6833
V33     V     0.284   0.2546   0.4333
V34     V     0.284   0.7546   0.4333
V35     V     0.784   0.2546   0.4333
V36     V     0.784   0.7546   0.4333
V37     V     0.216   0.2454   0.5667
V38     V     0.216   0.7454   0.5667
V39     V     0.716   0.2454   0.5667
V40     V     0.716   0.7454   0.5667
V41     V     0.034   0.2454   0.4333
V42     V     0.034   0.7454   0.4333
V43     V     0.534   0.2454   0.4333
V44     V     0.534   0.7454   0.4333
V45     V     0.466   0.2546   0.5667
V46     V     0.466   0.7546   0.5667
V47     V     0.966   0.2546   0.5667
V48     V     0.966   0.7546   0.5667
V49     V     0.216   0.4954   0.4333
V50     V     0.216   0.9954   0.4333
V51     V     0.716   0.4954   0.4333
V52     V     0.716   0.9954   0.4333
V53     V     0.284   0.0046   0.5667
V54     V     0.284   0.5046   0.5667
V55     V     0.784   0.0046   0.5667
V56     V     0.784   0.5046   0.5667
V57     V     0.466   0.0046   0.4333
V58     V     0.466   0.5046   0.4333
V59     V     0.966   0.0046   0.4333
V60     V     0.966   0.5046   0.4333
V61     V     0.034   0.4954   0.5667
V62     V     0.034   0.9954   0.5667
V63     V     0.534   0.4954   0.5667
V64     V     0.534   0.9954   0.5667
V65     V     0.466   0.2454   0.9333
V66     V     0.466   0.7454   0.9333
V67     V     0.966   0.2454   0.9333
V68     V     0.966   0.7454   0.9333
V69     V     0.034   0.2546   0.0667
V70     V     0.034   0.7546   0.0667
V71     V     0.534   0.2546   0.0667
V72     V     0.534   0.7546   0.0667
V73     V     0.216   0.2546   0.9333
V74     V     0.216   0.7546   0.9333
V75     V     0.716   0.2546   0.9333
V76     V     0.716   0.7546   0.9333
V77     V     0.284   0.2454   0.0667
V78     V     0.284   0.7454   0.0667
V79     V     0.784   0.2454   0.0667
V80     V     0.784   0.7454   0.0667
V81     V     0.034   0.0046   0.9333
V82     V     0.034   0.5046   0.9333
V83     V     0.534   0.0046   0.9333
V84     V     0.534   0.5046   0.9333
V85     V     0.466   0.4954   0.0667
V86     V     0.466   0.9954   0.0667
V87     V     0.966   0.4954   0.0667
V88     V     0.966   0.9954   0.0667
V89     V     0.284   0.4954   0.9333
V90     V     0.284   0.9954   0.9333
V91     V     0.784   0.4954   0.9333
V92     V     0.784   0.9954   0.9333
V93     V     0.216   0.0046   0.0667
V94     V     0.216   0.5046   0.0667
V95     V     0.716   0.0046   0.0667
V96     V     0.716   0.5046   0.0667
V97     V     0.1204   0.091   0.3167
V98     V     0.1204   0.591   0.3167
V99     V     0.6204   0.091   0.3167
V100     V     0.6204   0.591   0.3167
V101     V     0.1296   0.159   0.1833
V102     V     0.1296   0.659   0.1833
V103     V     0.6296   0.159   0.1833
V104     V     0.6296   0.659   0.1833
V105     V     0.1296   0.341   0.3167
V106     V     0.1296   0.841   0.3167
V107     V     0.6296   0.341   0.3167
V108     V     0.6296   0.841   0.3167
V109     V     0.1204   0.409   0.1833
V110     V     0.1204   0.909   0.1833
V111     V     0.6204   0.409   0.1833
V112     V     0.6204   0.909   0.1833
V113     V     0.3796   0.159   0.3167
V114     V     0.3796   0.659   0.3167
V115     V     0.8796   0.159   0.3167
V116     V     0.8796   0.659   0.3167
V117     V     0.3704   0.091   0.1833
V118     V     0.3704   0.591   0.1833
V119     V     0.8704   0.091   0.1833
V120     V     0.8704   0.591   0.1833
V121     V     0.3704   0.409   0.3167
V122     V     0.3704   0.909   0.3167
V123     V     0.8704   0.409   0.3167
V124     V     0.8704   0.909   0.3167
V125     V     0.3796   0.341   0.1833
V126     V     0.3796   0.841   0.1833
V127     V     0.8796   0.341   0.1833
V128     V     0.8796   0.841   0.1833
loop_
_geom_bond_atom_site_label_1
_geom_bond_atom_site_label_2
_geom_bond_distance
_geom_bond_site_symmetry_2
_ccdc_geom_bond_type
V1     V5    10.0   .     S
V1     V9    10.0   .     S
V1     V10    10.0   1_545     S
V1     V27    10.0   1_455     S
V1     V73    10.0   .     S
V2     V6    10.0   .     S
V2     V10    10.0   .     S
V2     V9    10.0   .     S
V2     V28    10.0   1_455     S
V2     V74    10.0   .     S
V3     V7    10.0   .     S
V3     V11    10.0   .     S
V3     V12    10.0   1_545     S
V3     V25    10.0   .     S
V3     V75    10.0   .     S
V4     V8    10.0   .     S
V4     V12    10.0   .     S
V4     V11    10.0   .     S
V4     V26    10.0   .     S
V4     V76    10.0   .     S
V5     V13    10.0   .     S
V5     V14    10.0   1_545     S
V5     V29    10.0   .     S
V5     V62    10.0   1_545     S
V6     V14    10.0   .     S
V6     V13    10.0   .     S
V6     V30    10.0   .     S
V6     V61    10.0   .     S
V7     V15    10.0   .     S
V7     V16    10.0   1_545     S
V7     V31    10.0   .     S
V7     V64    10.0   1_545     S
V8     V16    10.0   .     S
V8     V15    10.0   .     S
V8     V32    10.0   .     S
V8     V63    10.0   .     S
V9     V13    10.0   .     S
V9     V17    10.0   .     S
V9     V82    10.0   .     S
V10     V14    10.0   .     S
V10     V1    10.0   1_565     S
V10     V18    10.0   .     S
V10     V81    10.0   1_565     S
V11     V15    10.0   .     S
V11     V19    10.0   .     S
V11     V84    10.0   .     S
V12     V16    10.0   .     S
V12     V3    10.0   1_565     S
V12     V20    10.0   .     S
V12     V83    10.0   1_565     S
V13     V23    10.0   1_455     S
V13     V37    10.0   .     S
V14     V5    10.0   1_565     S
V14     V24    10.0   1_455     S
V14     V38    10.0   .     S
V15     V21    10.0   .     S
V15     V39    10.0   .     S
V16     V7    10.0   1_565     S
V16     V22    10.0   .     S
V16     V40    10.0   .     S
V17     V21    10.0   .     S
V17     V26    10.0   .     S
V17     V25    10.0   .     S
V17     V65    10.0   .     S
V18     V22    10.0   .     S
V18     V25    10.0   1_565     S
V18     V26    10.0   .     S
V18     V66    10.0   .     S
V19     V23    10.0   .     S
V19     V28    10.0   .     S
V19     V27    10.0   .     S
V19     V67    10.0   .     S
V20     V24    10.0   .     S
V20     V27    10.0   1_565     S
V20     V28    10.0   .     S
V20     V68    10.0   .     S
V21     V29    10.0   .     S
V21     V30    10.0   .     S
V21     V54    10.0   .     S
V22     V30    10.0   .     S
V22     V29    10.0   1_565     S
V22     V53    10.0   1_565     S
V23     V31    10.0   .     S
V23     V32    10.0   .     S
V23     V13    10.0   1_655     S
V23     V56    10.0   .     S
V24     V32    10.0   .     S
V24     V31    10.0   1_565     S
V24     V14    10.0   1_655     S
V24     V55    10.0   1_565     S
V25     V29    10.0   .     S
V25     V18    10.0   1_545     S
V25     V90    10.0   1_545     S
V26     V30    10.0   .     S
V26     V89    10.0   .     S
V27     V31    10.0   .     S
V27     V20    10.0   1_545     S
V27     V1    10.0   1_655     S
V27     V92    10.0   1_545     S
V28     V32    10.0   .     S
V28     V2    10.0   1_655     S
V28     V91    10.0   .     S
V29     V22    10.0   1_545     S
V29     V45    10.0   .     S
V30     V46    10.0   .     S
V31     V24    10.0   1_545     S
V31     V47    10.0   .     S
V32     V48    10.0   .     S
V33     V37    10.0   .     S
V33     V41    10.0   .     S
V33     V43    10.0   .     S
V33     V49    10.0   .     S
V33     V113    10.0   .     S
V34     V38    10.0   .     S
V34     V42    10.0   .     S
V34     V44    10.0   .     S
V34     V50    10.0   .     S
V34     V114    10.0   .     S
V35     V39    10.0   .     S
V35     V43    10.0   .     S
V35     V41    10.0   1_655     S
V35     V51    10.0   .     S
V35     V115    10.0   .     S
V36     V40    10.0   .     S
V36     V44    10.0   .     S
V36     V42    10.0   1_655     S
V36     V52    10.0   .     S
V36     V116    10.0   .     S
V37     V47    10.0   1_455     S
V37     V45    10.0   .     S
V37     V53    10.0   .     S
V38     V48    10.0   1_455     S
V38     V46    10.0   .     S
V38     V54    10.0   .     S
V39     V45    10.0   .     S
V39     V47    10.0   .     S
V39     V55    10.0   .     S
V40     V46    10.0   .     S
V40     V48    10.0   .     S
V40     V56    10.0   .     S
V41     V47    10.0   1_455     S
V41     V35    10.0   1_455     S
V41     V59    10.0   1_455     S
V41     V105    10.0   .     S
V42     V48    10.0   1_455     S
V42     V36    10.0   1_455     S
V42     V60    10.0   1_455     S
V42     V106    10.0   .     S
V43     V45    10.0   .     S
V43     V57    10.0   .     S
V43     V107    10.0   .     S
V44     V46    10.0   .     S
V44     V58    10.0   .     S
V44     V108    10.0   .     S
V45     V63    10.0   .     S
V46     V64    10.0   .     S
V47     V37    10.0   1_655     S
V47     V41    10.0   1_655     S
V47     V61    10.0   1_655     S
V48     V38    10.0   1_655     S
V48     V42    10.0   1_655     S
V48     V62    10.0   1_655     S
V49     V54    10.0   .     S
V49     V60    10.0   1_455     S
V49     V58    10.0   .     S
V49     V98    10.0   .     S
V50     V53    10.0   1_565     S
V50     V59    10.0   1_465     S
V50     V57    10.0   1_565     S
V50     V97    10.0   1_565     S
V51     V56    10.0   .     S
V51     V58    10.0   .     S
V51     V60    10.0   .     S
V51     V100    10.0   .     S
V52     V55    10.0   1_565     S
V52     V57    10.0   1_565     S
V52     V59    10.0   1_565     S
V52     V99    10.0   1_565     S
V53     V50    10.0   1_545     S
V53     V64    10.0   1_545     S
V53     V62    10.0   1_545     S
V53     V22    10.0   1_545     S
V54     V63    10.0   .     S
V54     V61    10.0   .     S
V55     V52    10.0   1_545     S
V55     V62    10.0   1_645     S
V55     V64    10.0   1_545     S
V55     V24    10.0   1_545     S
V56     V61    10.0   1_655     S
V56     V63    10.0   .     S
V57     V52    10.0   1_545     S
V57     V64    10.0   1_545     S
V57     V50    10.0   1_545     S
V57     V122    10.0   1_545     S
V58     V63    10.0   .     S
V58     V121    10.0   .     S
V59     V50    10.0   1_645     S
V59     V62    10.0   1_645     S
V59     V52    10.0   1_545     S
V59     V41    10.0   1_655     S
V59     V124    10.0   1_545     S
V60     V49    10.0   1_655     S
V60     V61    10.0   1_655     S
V60     V42    10.0   1_655     S
V60     V123    10.0   .     S
V61     V60    10.0   1_455     S
V61     V56    10.0   1_455     S
V61     V47    10.0   1_455     S
V62     V59    10.0   1_465     S
V62     V55    10.0   1_465     S
V62     V53    10.0   1_565     S
V62     V48    10.0   1_455     S
V62     V5    10.0   1_565     S
V64     V57    10.0   1_565     S
V64     V53    10.0   1_565     S
V64     V55    10.0   1_565     S
V64     V7    10.0   1_565     S
V65     V71    10.0   1_556     S
V65     V75    10.0   .     S
V65     V73    10.0   .     S
V65     V83    10.0   .     S
V66     V72    10.0   1_556     S
V66     V76    10.0   .     S
V66     V74    10.0   .     S
V66     V84    10.0   .     S
V67     V69    10.0   1_656     S
V67     V73    10.0   1_655     S
V67     V75    10.0   .     S
V67     V81    10.0   1_655     S
V68     V70    10.0   1_656     S
V68     V74    10.0   1_655     S
V68     V76    10.0   .     S
V68     V82    10.0   1_655     S
V69     V67    10.0   1_454     S
V69     V77    10.0   .     S
V69     V79    10.0   1_455     S
V69     V87    10.0   1_455     S
V69     V101    10.0   .     S
V70     V68    10.0   1_454     S
V70     V78    10.0   .     S
V70     V80    10.0   1_455     S
V70     V88    10.0   1_455     S
V70     V102    10.0   .     S
V71     V65    10.0   1_554     S
V71     V79    10.0   .     S
V71     V77    10.0   .     S
V71     V85    10.0   .     S
V71     V103    10.0   .     S
V72     V66    10.0   1_554     S
V72     V80    10.0   .     S
V72     V78    10.0   .     S
V72     V86    10.0   .     S
V72     V104    10.0   .     S
V73     V77    10.0   1_556     S
V73     V67    10.0   1_455     S
V73     V89    10.0   .     S
V74     V78    10.0   1_556     S
V74     V68    10.0   1_455     S
V74     V90    10.0   .     S
V75     V79    10.0   1_556     S
V75     V91    10.0   .     S
V76     V80    10.0   1_556     S
V76     V92    10.0   .     S
V77     V73    10.0   1_554     S
V77     V93    10.0   .     S
V77     V125    10.0   .     S
V78     V74    10.0   1_554     S
V78     V94    10.0   .     S
V78     V126    10.0   .     S
V79     V75    10.0   1_554     S
V79     V69    10.0   1_655     S
V79     V95    10.0   .     S
V79     V127    10.0   .     S
V80     V76    10.0   1_554     S
V80     V70    10.0   1_655     S
V80     V96    10.0   .     S
V80     V128    10.0   .     S
V81     V88    10.0   1_446     S
V81     V92    10.0   1_445     S
V81     V90    10.0   1_545     S
V81     V67    10.0   1_455     S
V81     V10    10.0   1_545     S
V82     V87    10.0   1_456     S
V82     V91    10.0   1_455     S
V82     V89    10.0   .     S
V82     V68    10.0   1_455     S
V83     V86    10.0   1_546     S
V83     V90    10.0   1_545     S
V83     V92    10.0   1_545     S
V83     V12    10.0   1_545     S
V84     V85    10.0   1_556     S
V84     V89    10.0   .     S
V84     V91    10.0   .     S
V85     V84    10.0   1_554     S
V85     V96    10.0   .     S
V85     V94    10.0   .     S
V85     V118    10.0   .     S
V86     V83    10.0   1_564     S
V86     V95    10.0   1_565     S
V86     V93    10.0   1_565     S
V86     V117    10.0   1_565     S
V87     V82    10.0   1_654     S
V87     V94    10.0   1_655     S
V87     V96    10.0   .     S
V87     V69    10.0   1_655     S
V87     V120    10.0   .     S
V88     V81    10.0   1_664     S
V88     V93    10.0   1_665     S
V88     V95    10.0   1_565     S
V88     V70    10.0   1_655     S
V88     V119    10.0   1_565     S
V89     V94    10.0   1_556     S
V90     V93    10.0   1_566     S
V90     V83    10.0   1_565     S
V90     V81    10.0   1_565     S
V90     V25    10.0   1_565     S
V91     V96    10.0   1_556     S
V91     V82    10.0   1_655     S
V92     V95    10.0   1_566     S
V92     V81    10.0   1_665     S
V92     V83    10.0   1_565     S
V92     V27    10.0   1_565     S
V93     V90    10.0   1_544     S
V93     V88    10.0   1_445     S
V93     V86    10.0   1_545     S
V93     V110    10.0   1_545     S
V94     V89    10.0   1_554     S
V94     V87    10.0   1_455     S
V94     V109    10.0   .     S
V95     V92    10.0   1_544     S
V95     V86    10.0   1_545     S
V95     V88    10.0   1_545     S
V95     V112    10.0   1_545     S
V96     V91    10.0   1_554     S
V96     V111    10.0   .     S
V97     V50    10.0   1_545     S
V97     V101    10.0   .     S
V97     V105    10.0   .     S
V97     V106    10.0   1_545     S
V97     V115    10.0   1_455     S
V98     V102    10.0   .     S
V98     V106    10.0   .     S
V98     V105    10.0   .     S
V98     V116    10.0   1_455     S
V99     V52    10.0   1_545     S
V99     V103    10.0   .     S
V99     V107    10.0   .     S
V99     V108    10.0   1_545     S
V99     V113    10.0   .     S
V100     V104    10.0   .     S
V100     V108    10.0   .     S
V100     V107    10.0   .     S
V100     V114    10.0   .     S
V101     V109    10.0   .     S
V101     V110    10.0   1_545     S
V101     V117    10.0   .     S
V102     V110    10.0   .     S
V102     V109    10.0   .     S
V102     V118    10.0   .     S
V103     V111    10.0   .     S
V103     V112    10.0   1_545     S
V103     V119    10.0   .     S
V104     V112    10.0   .     S
V104     V111    10.0   .     S
V104     V120    10.0   .     S
V105     V109    10.0   .     S
V105     V121    10.0   .     S
V106     V110    10.0   .     S
V106     V97    10.0   1_565     S
V106     V122    10.0   .     S
V107     V111    10.0   .     S
V107     V123    10.0   .     S
V108     V112    10.0   .     S
V108     V99    10.0   1_565     S
V108     V124    10.0   .     S
V109     V127    10.0   1_455     S
V110     V101    10.0   1_565     S
V110     V128    10.0   1_455     S
V110     V93    10.0   1_565     S
V111     V125    10.0   .     S
V112     V103    10.0   1_565     S
V112     V126    10.0   .     S
V112     V95    10.0   1_565     S
V113     V117    10.0   .     S
V113     V121    10.0   .     S
V113     V122    10.0   1_545     S
V114     V118    10.0   .     S
V114     V122    10.0   .     S
V114     V121    10.0   .     S
V115     V119    10.0   .     S
V115     V123    10.0   .     S
V115     V124    10.0   1_545     S
V115     V97    10.0   1_655     S
V116     V120    10.0   .     S
V116     V124    10.0   .     S
V116     V123    10.0   .     S
V116     V98    10.0   1_655     S
V117     V126    10.0   1_545     S
V117     V125    10.0   .     S
V117     V86    10.0   1_545     S
V118     V125    10.0   .     S
V118     V126    10.0   .     S
V119     V128    10.0   1_545     S
V119     V127    10.0   .     S
V119     V88    10.0   1_545     S
V120     V127    10.0   .     S
V120     V128    10.0   .     S
V121     V125    10.0   .     S
V122     V57    10.0   1_565     S
V122     V126    10.0   .     S
V122     V113    10.0   1_565     S
V123     V127    10.0   .     S
V124     V59    10.0   1_565     S
V124     V128    10.0   .     S
V124     V115    10.0   1_565     S
V126     V117    10.0   1_565     S
V127     V109    10.0   1_655     S
V128     V119    10.0   1_565     S
V128     V110    10.0   1_655     S
