data_wgp
_audit_creation_date              2019-12-31
_audit_creation_method            'Pymatgen'
_symmetry_space_group_name_H-M    'P1'
_symmetry_Int_Tables_number       1
loop_
_symmetry_equiv_pos_as_xyz
  x,y,z
_cell_length_a                    39.8
_cell_length_b                    39.8
_cell_length_c                    75.3385
_cell_angle_alpha                 90.0
_cell_angle_beta                 90.0
_cell_angle_gamma                 90.0
loop_
_atom_site_label
_atom_site_type_symbol
_atom_site_fract_x
_atom_site_fract_y
_atom_site_fract_z
V1     V     0.056   0.0125   0.316
V2     V     0.056   0.5125   0.316
V3     V     0.556   0.0125   0.316
V4     V     0.556   0.5125   0.316
V5     V     0.056   0.4874   0.184
V6     V     0.056   0.9874   0.184
V7     V     0.556   0.4874   0.184
V8     V     0.556   0.9874   0.184
V9     V     0.306   0.4875   0.316
V10     V     0.306   0.9875   0.316
V11     V     0.806   0.4875   0.316
V12     V     0.806   0.9875   0.316
V13     V     0.306   0.0126   0.184
V14     V     0.306   0.5126   0.184
V15     V     0.806   0.0126   0.184
V16     V     0.806   0.5126   0.184
V17     V     0.194   0.2626   0.316
V18     V     0.194   0.7625   0.316
V19     V     0.694   0.2626   0.316
V20     V     0.694   0.7625   0.316
V21     V     0.194   0.2374   0.184
V22     V     0.194   0.7375   0.184
V23     V     0.694   0.2374   0.184
V24     V     0.694   0.7375   0.184
V25     V     0.444   0.2625   0.184
V26     V     0.444   0.7625   0.184
V27     V     0.944   0.2625   0.184
V28     V     0.944   0.7625   0.184
V29     V     0.444   0.2374   0.316
V30     V     0.444   0.7375   0.316
V31     V     0.944   0.2374   0.316
V32     V     0.944   0.7375   0.316
V33     V     0.3876   0.181   0.934
V34     V     0.3876   0.681   0.934
V35     V     0.8876   0.181   0.934
V36     V     0.8876   0.681   0.934
V37     V     0.3624   0.181   0.066
V38     V     0.3624   0.681   0.066
V39     V     0.8624   0.181   0.066
V40     V     0.8624   0.681   0.066
V41     V     0.3876   0.431   0.066
V42     V     0.3876   0.931   0.066
V43     V     0.8876   0.431   0.066
V44     V     0.8876   0.931   0.066
V45     V     0.3624   0.431   0.934
V46     V     0.3624   0.931   0.934
V47     V     0.8624   0.431   0.934
V48     V     0.8624   0.931   0.934
V49     V     0.1124   0.319   0.066
V50     V     0.1124   0.819   0.066
V51     V     0.6124   0.319   0.066
V52     V     0.6124   0.819   0.066
V53     V     0.1376   0.319   0.934
V54     V     0.1376   0.819   0.934
V55     V     0.6375   0.319   0.934
V56     V     0.6375   0.819   0.934
V57     V     0.1376   0.069   0.066
V58     V     0.1376   0.569   0.066
V59     V     0.6375   0.069   0.066
V60     V     0.6375   0.569   0.066
V61     V     0.1124   0.069   0.934
V62     V     0.1124   0.569   0.934
V63     V     0.6124   0.069   0.934
V64     V     0.6124   0.569   0.934
V65     V     0.1124   0.181   0.434
V66     V     0.1124   0.681   0.434
V67     V     0.6124   0.181   0.434
V68     V     0.6124   0.681   0.434
V69     V     0.1376   0.181   0.566
V70     V     0.1376   0.681   0.566
V71     V     0.6375   0.181   0.566
V72     V     0.6375   0.681   0.566
V73     V     0.1376   0.431   0.434
V74     V     0.1376   0.931   0.434
V75     V     0.6375   0.431   0.434
V76     V     0.6375   0.931   0.434
V77     V     0.1124   0.431   0.566
V78     V     0.1124   0.931   0.566
V79     V     0.6124   0.431   0.566
V80     V     0.6124   0.931   0.566
V81     V     0.3624   0.319   0.434
V82     V     0.3624   0.819   0.434
V83     V     0.8624   0.319   0.434
V84     V     0.8624   0.819   0.434
V85     V     0.3876   0.319   0.566
V86     V     0.3876   0.819   0.566
V87     V     0.8876   0.319   0.566
V88     V     0.8876   0.819   0.566
V89     V     0.3624   0.069   0.566
V90     V     0.3624   0.569   0.566
V91     V     0.8624   0.069   0.566
V92     V     0.8624   0.569   0.566
V93     V     0.3876   0.069   0.434
V94     V     0.3876   0.569   0.434
V95     V     0.8876   0.069   0.434
V96     V     0.8876   0.569   0.434
V97     V     0.194   0.0125   0.684
V98     V     0.194   0.5125   0.684
V99     V     0.694   0.0125   0.684
V100     V     0.694   0.5125   0.684
V101     V     0.194   0.4874   0.816
V102     V     0.194   0.9874   0.816
V103     V     0.694   0.4874   0.816
V104     V     0.694   0.9874   0.816
V105     V     0.444   0.4875   0.684
V106     V     0.444   0.9875   0.684
V107     V     0.944   0.4875   0.684
V108     V     0.944   0.9875   0.684
V109     V     0.444   0.0126   0.816
V110     V     0.444   0.5126   0.816
V111     V     0.944   0.0126   0.816
V112     V     0.944   0.5126   0.816
V113     V     0.306   0.2374   0.684
V114     V     0.306   0.7375   0.684
V115     V     0.806   0.2374   0.684
V116     V     0.806   0.7375   0.684
V117     V     0.306   0.2625   0.816
V118     V     0.306   0.7625   0.816
V119     V     0.806   0.2625   0.816
V120     V     0.806   0.7625   0.816
V121     V     0.056   0.2626   0.684
V122     V     0.056   0.7625   0.684
V123     V     0.556   0.2626   0.684
V124     V     0.556   0.7625   0.684
V125     V     0.056   0.2374   0.816
V126     V     0.056   0.7375   0.816
V127     V     0.556   0.2374   0.816
V128     V     0.556   0.7375   0.816
loop_
_geom_bond_atom_site_label_1
_geom_bond_atom_site_label_2
_geom_bond_distance
_geom_bond_site_symmetry_2
_ccdc_geom_bond_type
V1     V6    9.999   1_545     S
V1     V10    10.0   1_545     S
V1     V12    10.0   1_445     S
V1     V31    10.0   1_455     S
V1     V74    10.001   1_545     S
V2     V5    9.999   .     S
V2     V9    10.0   .     S
V2     V11    10.0   1_455     S
V2     V32    10.0   1_455     S
V2     V73    10.001   .     S
V3     V8    9.999   1_545     S
V3     V12    10.0   1_545     S
V3     V10    10.0   1_545     S
V3     V29    10.0   .     S
V3     V76    10.001   1_545     S
V4     V7    9.999   .     S
V4     V11    10.0   .     S
V4     V9    10.0   .     S
V4     V30    10.0   .     S
V4     V75    10.001   .     S
V5     V14    10.0   .     S
V5     V16    10.0   1_455     S
V5     V27    10.0   1_455     S
V5     V58    10.001   .     S
V6     V1    9.999   1_565     S
V6     V13    10.0   1_565     S
V6     V15    10.0   1_465     S
V6     V28    10.0   1_455     S
V6     V57    10.001   1_565     S
V7     V16    10.0   .     S
V7     V14    10.0   .     S
V7     V25    10.0   .     S
V7     V60    10.001   .     S
V8     V3    9.999   1_565     S
V8     V15    10.0   1_565     S
V8     V13    10.0   1_565     S
V8     V26    10.0   .     S
V8     V59    10.001   1_565     S
V9     V14    9.999   .     S
V9     V17    10.0   .     S
V9     V94    10.001   .     S
V10     V13    9.999   1_565     S
V10     V1    10.0   1_565     S
V10     V3    10.0   1_565     S
V10     V18    10.0   .     S
V10     V93    10.001   1_565     S
V11     V16    9.999   .     S
V11     V2    10.0   1_655     S
V11     V19    10.0   .     S
V11     V96    10.001   .     S
V12     V15    9.999   1_565     S
V12     V3    10.0   1_565     S
V12     V1    10.0   1_665     S
V12     V20    10.0   .     S
V12     V95    10.001   1_565     S
V13     V10    9.999   1_545     S
V13     V6    10.0   1_545     S
V13     V8    10.0   1_545     S
V13     V21    10.0   .     S
V13     V42    10.001   1_545     S
V14     V22    10.0   .     S
V14     V41    10.001   .     S
V15     V12    9.999   1_545     S
V15     V8    10.0   1_545     S
V15     V6    10.0   1_645     S
V15     V23    10.0   .     S
V15     V44    10.001   1_545     S
V16     V5    10.0   1_655     S
V16     V24    10.0   .     S
V16     V43    10.001   .     S
V17     V21    9.999   .     S
V17     V31    10.0   1_455     S
V17     V29    10.0   .     S
V17     V65    10.001   .     S
V18     V22    9.999   .     S
V18     V32    10.0   1_455     S
V18     V30    10.0   .     S
V18     V66    10.001   .     S
V19     V23    9.999   .     S
V19     V29    10.0   .     S
V19     V31    10.0   .     S
V19     V67    10.001   .     S
V20     V24    9.999   .     S
V20     V30    10.0   .     S
V20     V32    10.0   .     S
V20     V68    10.001   .     S
V21     V27    10.0   1_455     S
V21     V25    10.0   .     S
V21     V49    10.001   .     S
V22     V28    10.0   1_455     S
V22     V26    10.0   .     S
V22     V50    10.001   .     S
V23     V25    10.0   .     S
V23     V27    10.0   .     S
V23     V51    10.001   .     S
V24     V26    10.0   .     S
V24     V28    10.0   .     S
V24     V52    10.001   .     S
V25     V29    9.999   .     S
V25     V37    10.001   .     S
V26     V30    9.999   .     S
V26     V38    10.001   .     S
V27     V5    10.0   1_655     S
V27     V31    9.999   .     S
V27     V21    10.0   1_655     S
V27     V39    10.001   .     S
V28     V6    10.0   1_655     S
V28     V32    9.999   .     S
V28     V22    10.0   1_655     S
V28     V40    10.001   .     S
V29     V81    10.001   .     S
V30     V82    10.001   .     S
V31     V17    10.0   1_655     S
V31     V1    10.0   1_655     S
V31     V83    10.001   .     S
V32     V18    10.0   1_655     S
V32     V2    10.0   1_655     S
V32     V84    10.001   .     S
V33     V37    9.999   1_556     S
V33     V45    10.0   .     S
V33     V46    10.0   1_545     S
V33     V63    10.0   .     S
V33     V117    10.001   .     S
V34     V38    9.999   1_556     S
V34     V46    10.0   .     S
V34     V45    10.0   .     S
V34     V64    10.0   .     S
V34     V118    10.001   .     S
V35     V39    9.999   1_556     S
V35     V47    10.0   .     S
V35     V48    10.0   1_545     S
V35     V61    10.0   1_655     S
V35     V119    10.001   .     S
V36     V40    9.999   1_556     S
V36     V48    10.0   .     S
V36     V47    10.0   .     S
V36     V62    10.0   1_655     S
V36     V120    10.001   .     S
V37     V33    9.999   1_554     S
V37     V41    10.0   .     S
V37     V42    10.0   1_545     S
V37     V57    10.0   .     S
V38     V34    9.999   1_554     S
V38     V42    10.0   .     S
V38     V41    10.0   .     S
V38     V58    10.0   .     S
V39     V35    9.999   1_554     S
V39     V43    10.0   .     S
V39     V44    10.0   1_545     S
V39     V59    10.0   .     S
V40     V36    9.999   1_554     S
V40     V44    10.0   .     S
V40     V43    10.0   .     S
V40     V60    10.0   .     S
V41     V45    9.999   1_554     S
V41     V51    10.0   .     S
V42     V46    9.999   1_554     S
V42     V37    10.0   1_565     S
V42     V52    10.0   .     S
V42     V13    10.001   1_565     S
V43     V47    9.999   1_554     S
V43     V49    10.0   1_655     S
V44     V48    9.999   1_554     S
V44     V39    10.0   1_565     S
V44     V50    10.0   1_655     S
V44     V15    10.001   1_565     S
V45     V41    9.999   1_556     S
V45     V53    10.0   .     S
V45     V110    10.001   .     S
V46     V42    9.999   1_556     S
V46     V33    10.0   1_565     S
V46     V54    10.0   .     S
V46     V109    10.001   1_565     S
V47     V43    9.999   1_556     S
V47     V55    10.0   .     S
V47     V112    10.001   .     S
V48     V44    9.999   1_556     S
V48     V35    10.0   1_565     S
V48     V56    10.0   .     S
V48     V111    10.001   1_565     S
V49     V53    9.999   1_554     S
V49     V58    10.0   .     S
V49     V57    10.0   .     S
V49     V43    10.0   1_455     S
V50     V54    9.999   1_554     S
V50     V57    10.0   1_565     S
V50     V58    10.0   .     S
V50     V44    10.0   1_455     S
V51     V55    9.999   1_554     S
V51     V60    10.0   .     S
V51     V59    10.0   .     S
V52     V56    9.999   1_554     S
V52     V59    10.0   1_565     S
V52     V60    10.0   .     S
V53     V49    9.999   1_556     S
V53     V62    10.0   .     S
V53     V61    10.0   .     S
V53     V125    10.001   .     S
V54     V50    9.999   1_556     S
V54     V61    10.0   1_565     S
V54     V62    10.0   .     S
V54     V126    10.001   .     S
V55     V51    9.999   1_556     S
V55     V64    10.0   .     S
V55     V63    10.0   .     S
V55     V127    10.001   .     S
V56     V52    9.999   1_556     S
V56     V63    10.0   1_565     S
V56     V64    10.0   .     S
V56     V128    10.001   .     S
V57     V61    9.999   1_554     S
V57     V50    10.0   1_545     S
V57     V6    10.001   1_545     S
V58     V62    9.999   1_554     S
V59     V63    9.999   1_554     S
V59     V52    10.0   1_545     S
V59     V8    10.001   1_545     S
V60     V64    9.999   1_554     S
V61     V57    9.999   1_556     S
V61     V54    10.0   1_545     S
V61     V35    10.0   1_455     S
V61     V102    10.001   1_545     S
V62     V58    9.999   1_556     S
V62     V36    10.0   1_455     S
V62     V101    10.001   .     S
V63     V59    9.999   1_556     S
V63     V56    10.0   1_545     S
V63     V104    10.001   1_545     S
V64     V60    9.999   1_556     S
V64     V103    10.001   .     S
V65     V69    9.999   .     S
V65     V73    10.0   .     S
V65     V74    10.0   1_545     S
V65     V95    10.0   1_455     S
V66     V70    9.999   .     S
V66     V74    10.0   .     S
V66     V73    10.0   .     S
V66     V96    10.0   1_455     S
V67     V71    9.999   .     S
V67     V75    10.0   .     S
V67     V76    10.0   1_545     S
V67     V93    10.0   .     S
V68     V72    9.999   .     S
V68     V76    10.0   .     S
V68     V75    10.0   .     S
V68     V94    10.0   .     S
V69     V77    10.0   .     S
V69     V78    10.0   1_545     S
V69     V89    10.0   .     S
V69     V121    10.001   .     S
V70     V78    10.0   .     S
V70     V77    10.0   .     S
V70     V90    10.0   .     S
V70     V122    10.001   .     S
V71     V79    10.0   .     S
V71     V80    10.0   1_545     S
V71     V91    10.0   .     S
V71     V123    10.001   .     S
V72     V80    10.0   .     S
V72     V79    10.0   .     S
V72     V92    10.0   .     S
V72     V124    10.001   .     S
V73     V77    9.999   .     S
V73     V81    10.0   .     S
V74     V1    10.001   1_565     S
V74     V78    9.999   .     S
V74     V65    10.0   1_565     S
V74     V82    10.0   .     S
V75     V79    9.999   .     S
V75     V83    10.0   .     S
V76     V3    10.001   1_565     S
V76     V80    9.999   .     S
V76     V67    10.0   1_565     S
V76     V84    10.0   .     S
V77     V87    10.0   1_455     S
V77     V98    10.001   .     S
V78     V69    10.0   1_565     S
V78     V88    10.0   1_455     S
V78     V97    10.001   1_565     S
V79     V85    10.0   .     S
V79     V100    10.001   .     S
V80     V71    10.0   1_565     S
V80     V86    10.0   .     S
V80     V99    10.001   1_565     S
V81     V85    9.999   .     S
V81     V94    10.0   .     S
V81     V93    10.0   .     S
V82     V86    9.999   .     S
V82     V93    10.0   1_565     S
V82     V94    10.0   .     S
V83     V87    9.999   .     S
V83     V96    10.0   .     S
V83     V95    10.0   .     S
V84     V88    9.999   .     S
V84     V95    10.0   1_565     S
V84     V96    10.0   .     S
V85     V90    10.0   .     S
V85     V89    10.0   .     S
V85     V113    10.001   .     S
V86     V89    10.0   1_565     S
V86     V90    10.0   .     S
V86     V114    10.001   .     S
V87     V92    10.0   .     S
V87     V91    10.0   .     S
V87     V77    10.0   1_655     S
V87     V115    10.001   .     S
V88     V91    10.0   1_565     S
V88     V92    10.0   .     S
V88     V78    10.0   1_655     S
V88     V116    10.001   .     S
V89     V93    9.999   .     S
V89     V86    10.0   1_545     S
V89     V106    10.001   1_545     S
V90     V94    9.999   .     S
V90     V105    10.001   .     S
V91     V95    9.999   .     S
V91     V88    10.0   1_545     S
V91     V108    10.001   1_545     S
V92     V96    9.999   .     S
V92     V107    10.001   .     S
V93     V10    10.001   1_545     S
V93     V82    10.0   1_545     S
V95     V12    10.001   1_545     S
V95     V84    10.0   1_545     S
V95     V65    10.0   1_655     S
V96     V66    10.0   1_655     S
V97     V102    9.999   1_545     S
V97     V108    10.0   1_445     S
V97     V106    10.0   1_545     S
V97     V113    10.0   .     S
V97     V78    10.001   1_545     S
V98     V101    9.999   .     S
V98     V107    10.0   1_455     S
V98     V105    10.0   .     S
V98     V114    10.0   .     S
V99     V104    9.999   1_545     S
V99     V106    10.0   1_545     S
V99     V108    10.0   1_545     S
V99     V115    10.0   .     S
V99     V80    10.001   1_545     S
V100     V103    9.999   .     S
V100     V105    10.0   .     S
V100     V107    10.0   .     S
V100     V116    10.0   .     S
V101     V112    10.0   1_455     S
V101     V110    10.0   .     S
V101     V117    10.0   .     S
V102     V61    10.001   1_565     S
V102     V97    9.999   1_565     S
V102     V111    10.0   1_465     S
V102     V109    10.0   1_565     S
V102     V118    10.0   .     S
V103     V110    10.0   .     S
V103     V112    10.0   .     S
V103     V119    10.0   .     S
V104     V63    10.001   1_565     S
V104     V99    9.999   1_565     S
V104     V109    10.0   1_565     S
V104     V111    10.0   1_565     S
V104     V120    10.0   .     S
V105     V110    9.999   .     S
V105     V123    10.0   .     S
V106     V109    9.999   1_565     S
V106     V99    10.0   1_565     S
V106     V97    10.0   1_565     S
V106     V124    10.0   .     S
V106     V89    10.001   1_565     S
V107     V112    9.999   .     S
V107     V98    10.0   1_655     S
V107     V121    10.0   1_655     S
V108     V111    9.999   1_565     S
V108     V97    10.0   1_665     S
V108     V99    10.0   1_565     S
V108     V122    10.0   1_655     S
V108     V91    10.001   1_565     S
V109     V46    10.001   1_545     S
V109     V106    9.999   1_545     S
V109     V104    10.0   1_545     S
V109     V102    10.0   1_545     S
V109     V127    10.0   .     S
V110     V128    10.0   .     S
V111     V48    10.001   1_545     S
V111     V108    9.999   1_545     S
V111     V102    10.0   1_645     S
V111     V104    10.0   1_545     S
V111     V125    10.0   1_655     S
V112     V101    10.0   1_655     S
V112     V126    10.0   1_655     S
V113     V117    9.999   .     S
V113     V121    10.0   .     S
V113     V123    10.0   .     S
V114     V118    9.999   .     S
V114     V122    10.0   .     S
V114     V124    10.0   .     S
V115     V119    9.999   .     S
V115     V123    10.0   .     S
V115     V121    10.0   1_655     S
V116     V120    9.999   .     S
V116     V124    10.0   .     S
V116     V122    10.0   1_655     S
V117     V125    10.0   .     S
V117     V127    10.0   .     S
V118     V126    10.0   .     S
V118     V128    10.0   .     S
V119     V127    10.0   .     S
V119     V125    10.0   1_655     S
V120     V128    10.0   .     S
V120     V126    10.0   1_655     S
V121     V125    9.999   .     S
V121     V115    10.0   1_455     S
V121     V107    10.0   1_455     S
V122     V126    9.999   .     S
V122     V116    10.0   1_455     S
V122     V108    10.0   1_455     S
V123     V127    9.999   .     S
V124     V128    9.999   .     S
V125     V111    10.0   1_455     S
V125     V119    10.0   1_455     S
V126     V112    10.0   1_455     S
V126     V120    10.0   1_455     S
