data_wgq
_audit_creation_date              2019-12-31
_audit_creation_method            'Pymatgen'
_symmetry_space_group_name_H-M    'P1'
_symmetry_Int_Tables_number       1
loop_
_symmetry_equiv_pos_as_xyz
  x,y,z
_cell_length_a                    39.7172
_cell_length_b                    39.7172
_cell_length_c                    78.1767
_cell_angle_alpha                 90.0
_cell_angle_beta                 90.0
_cell_angle_gamma                 90.0
loop_
_atom_site_label
_atom_site_type_symbol
_atom_site_fract_x
_atom_site_fract_y
_atom_site_fract_z
V1     V     0.3899   0.3139   0.4365
V2     V     0.3899   0.8139   0.4365
V3     V     0.8899   0.3139   0.4365
V4     V     0.8899   0.8139   0.4365
V5     V     0.4389   0.2649   0.3135
V6     V     0.4389   0.7649   0.3135
V7     V     0.9389   0.2649   0.3135
V8     V     0.9389   0.7649   0.3135
V9     V     0.1101   0.4361   0.4365
V10     V     0.1101   0.9361   0.4365
V11     V     0.6101   0.4361   0.4365
V12     V     0.6101   0.9361   0.4365
V13     V     0.0611   0.4851   0.3135
V14     V     0.0611   0.9851   0.3135
V15     V     0.5611   0.4851   0.3135
V16     V     0.5611   0.9851   0.3135
V17     V     0.3601   0.0639   0.4365
V18     V     0.3601   0.5639   0.4365
V19     V     0.8601   0.0639   0.4365
V20     V     0.8601   0.5639   0.4365
V21     V     0.3111   0.0149   0.3135
V22     V     0.3111   0.5149   0.3135
V23     V     0.8111   0.0149   0.3135
V24     V     0.8111   0.5149   0.3135
V25     V     0.1889   0.2351   0.3135
V26     V     0.1889   0.7351   0.3135
V27     V     0.6889   0.2351   0.3135
V28     V     0.6889   0.7351   0.3135
V29     V     0.1399   0.1861   0.4365
V30     V     0.1399   0.6861   0.4365
V31     V     0.6399   0.1861   0.4365
V32     V     0.6399   0.6861   0.4365
V33     V     0.3601   0.3139   0.5635
V34     V     0.3601   0.8139   0.5635
V35     V     0.8601   0.3139   0.5635
V36     V     0.8601   0.8139   0.5635
V37     V     0.3111   0.2649   0.6865
V38     V     0.3111   0.7649   0.6865
V39     V     0.8111   0.2649   0.6865
V40     V     0.8111   0.7649   0.6865
V41     V     0.1399   0.4361   0.5635
V42     V     0.1399   0.9361   0.5635
V43     V     0.6399   0.4361   0.5635
V44     V     0.6399   0.9361   0.5635
V45     V     0.1889   0.4851   0.6865
V46     V     0.1889   0.9851   0.6865
V47     V     0.6889   0.4851   0.6865
V48     V     0.6889   0.9851   0.6865
V49     V     0.1101   0.1861   0.5635
V50     V     0.1101   0.6861   0.5635
V51     V     0.6101   0.1861   0.5635
V52     V     0.6101   0.6861   0.5635
V53     V     0.0611   0.2351   0.6865
V54     V     0.0611   0.7351   0.6865
V55     V     0.5611   0.2351   0.6865
V56     V     0.5611   0.7351   0.6865
V57     V     0.3899   0.0639   0.5635
V58     V     0.3899   0.5639   0.5635
V59     V     0.8899   0.0639   0.5635
V60     V     0.8899   0.5639   0.5635
V61     V     0.4389   0.0149   0.6865
V62     V     0.4389   0.5149   0.6865
V63     V     0.9389   0.0149   0.6865
V64     V     0.9389   0.5149   0.6865
V65     V     0.1399   0.3139   0.0635
V66     V     0.1399   0.8139   0.0635
V67     V     0.6399   0.3139   0.0635
V68     V     0.6399   0.8139   0.0635
V69     V     0.1889   0.2649   0.1865
V70     V     0.1889   0.7649   0.1865
V71     V     0.6889   0.2649   0.1865
V72     V     0.6889   0.7649   0.1865
V73     V     0.3111   0.4851   0.1865
V74     V     0.3111   0.9851   0.1865
V75     V     0.8111   0.4851   0.1865
V76     V     0.8111   0.9851   0.1865
V77     V     0.3601   0.4361   0.0635
V78     V     0.3601   0.9361   0.0635
V79     V     0.8601   0.4361   0.0635
V80     V     0.8601   0.9361   0.0635
V81     V     0.0611   0.0149   0.1865
V82     V     0.0611   0.5149   0.1865
V83     V     0.5611   0.0149   0.1865
V84     V     0.5611   0.5149   0.1865
V85     V     0.1101   0.0639   0.0635
V86     V     0.1101   0.5639   0.0635
V87     V     0.6101   0.0639   0.0635
V88     V     0.6101   0.5639   0.0635
V89     V     0.4389   0.2351   0.1865
V90     V     0.4389   0.7351   0.1865
V91     V     0.9389   0.2351   0.1865
V92     V     0.9389   0.7351   0.1865
V93     V     0.3899   0.1861   0.0635
V94     V     0.3899   0.6861   0.0635
V95     V     0.8899   0.1861   0.0635
V96     V     0.8899   0.6861   0.0635
V97     V     0.1399   0.0639   0.9365
V98     V     0.1399   0.5639   0.9365
V99     V     0.6399   0.0639   0.9365
V100     V     0.6399   0.5639   0.9365
V101     V     0.1889   0.0149   0.8135
V102     V     0.1889   0.5149   0.8135
V103     V     0.6889   0.0149   0.8135
V104     V     0.6889   0.5149   0.8135
V105     V     0.3111   0.2351   0.8135
V106     V     0.3111   0.7351   0.8135
V107     V     0.8111   0.2351   0.8135
V108     V     0.8111   0.7351   0.8135
V109     V     0.3601   0.1861   0.9365
V110     V     0.3601   0.6861   0.9365
V111     V     0.8601   0.1861   0.9365
V112     V     0.8601   0.6861   0.9365
V113     V     0.1101   0.3139   0.9365
V114     V     0.1101   0.8139   0.9365
V115     V     0.6101   0.3139   0.9365
V116     V     0.6101   0.8139   0.9365
V117     V     0.0611   0.2649   0.8135
V118     V     0.0611   0.7649   0.8135
V119     V     0.5611   0.2649   0.8135
V120     V     0.5611   0.7649   0.8135
V121     V     0.3899   0.4361   0.9365
V122     V     0.3899   0.9361   0.9365
V123     V     0.8899   0.4361   0.9365
V124     V     0.8899   0.9361   0.9365
V125     V     0.4389   0.4851   0.8135
V126     V     0.4389   0.9851   0.8135
V127     V     0.9389   0.4851   0.8135
V128     V     0.9389   0.9851   0.8135
loop_
_geom_bond_atom_site_label_1
_geom_bond_atom_site_label_2
_geom_bond_distance
_geom_bond_site_symmetry_2
_ccdc_geom_bond_type
V1     V5    9.999   .     S
V1     V11    10.0   .     S
V1     V17    10.0   .     S
V1     V18    10.0   .     S
V1     V33    10.001   .     S
V2     V6    9.999   .     S
V2     V12    10.0   .     S
V2     V18    10.0   .     S
V2     V17    10.0   1_565     S
V2     V34    10.001   .     S
V3     V7    9.999   .     S
V3     V9    10.0   1_655     S
V3     V19    10.0   .     S
V3     V20    10.0   .     S
V3     V35    10.001   .     S
V4     V8    9.999   .     S
V4     V10    10.0   1_655     S
V4     V20    10.0   .     S
V4     V19    10.0   1_565     S
V4     V36    10.001   .     S
V5     V15    10.0   .     S
V5     V25    10.0   .     S
V5     V27    10.0   .     S
V5     V89    10.001   .     S
V6     V16    10.0   .     S
V6     V26    10.0   .     S
V6     V28    10.0   .     S
V6     V90    10.001   .     S
V7     V13    10.0   1_655     S
V7     V27    10.0   .     S
V7     V25    10.0   1_655     S
V7     V91    10.001   .     S
V8     V14    10.0   1_655     S
V8     V28    10.0   .     S
V8     V26    10.0   1_655     S
V8     V92    10.001   .     S
V9     V13    9.999   .     S
V9     V3    10.0   1_455     S
V9     V30    10.0   .     S
V9     V29    10.0   .     S
V9     V41    10.001   .     S
V10     V14    9.999   .     S
V10     V4    10.0   1_455     S
V10     V29    10.0   1_565     S
V10     V30    10.0   .     S
V10     V42    10.001   .     S
V11     V15    9.999   .     S
V11     V32    10.0   .     S
V11     V31    10.0   .     S
V11     V43    10.001   .     S
V12     V16    9.999   .     S
V12     V31    10.0   1_565     S
V12     V32    10.0   .     S
V12     V44    10.001   .     S
V13     V7    10.0   1_455     S
V13     V24    10.0   1_455     S
V13     V22    10.0   .     S
V13     V82    10.001   .     S
V14     V8    10.0   1_455     S
V14     V23    10.0   1_465     S
V14     V21    10.0   1_565     S
V14     V81    10.001   1_565     S
V15     V22    10.0   .     S
V15     V24    10.0   .     S
V15     V84    10.001   .     S
V16     V21    10.0   1_565     S
V16     V23    10.0   1_565     S
V16     V83    10.001   1_565     S
V17     V21    9.999   .     S
V17     V29    10.0   .     S
V17     V2    10.0   1_545     S
V17     V57    10.001   .     S
V18     V22    9.999   .     S
V18     V30    10.0   .     S
V18     V58    10.001   .     S
V19     V23    9.999   .     S
V19     V31    10.0   .     S
V19     V4    10.0   1_545     S
V19     V59    10.001   .     S
V20     V24    9.999   .     S
V20     V32    10.0   .     S
V20     V60    10.001   .     S
V21     V16    10.0   1_545     S
V21     V25    10.0   .     S
V21     V14    10.0   1_545     S
V21     V74    10.001   1_545     S
V22     V26    10.0   .     S
V22     V73    10.001   .     S
V23     V14    10.0   1_645     S
V23     V27    10.0   .     S
V23     V16    10.0   1_545     S
V23     V76    10.001   1_545     S
V24     V13    10.0   1_655     S
V24     V28    10.0   .     S
V24     V75    10.001   .     S
V25     V29    9.999   .     S
V25     V7    10.0   1_455     S
V25     V69    10.001   .     S
V26     V30    9.999   .     S
V26     V8    10.0   1_455     S
V26     V70    10.001   .     S
V27     V31    9.999   .     S
V27     V71    10.001   .     S
V28     V32    9.999   .     S
V28     V72    10.001   .     S
V29     V10    10.0   1_545     S
V29     V49    10.001   .     S
V30     V50    10.001   .     S
V31     V12    10.0   1_545     S
V31     V51    10.001   .     S
V32     V52    10.001   .     S
V33     V37    9.999   .     S
V33     V41    10.0   .     S
V33     V57    10.0   .     S
V33     V58    10.0   .     S
V34     V38    9.999   .     S
V34     V42    10.0   .     S
V34     V58    10.0   .     S
V34     V57    10.0   1_565     S
V35     V39    9.999   .     S
V35     V43    10.0   .     S
V35     V59    10.0   .     S
V35     V60    10.0   .     S
V36     V40    9.999   .     S
V36     V44    10.0   .     S
V36     V60    10.0   .     S
V36     V59    10.0   1_565     S
V37     V45    10.0   .     S
V37     V55    10.0   .     S
V37     V53    10.0   .     S
V37     V105    10.001   .     S
V38     V46    10.0   .     S
V38     V56    10.0   .     S
V38     V54    10.0   .     S
V38     V106    10.001   .     S
V39     V47    10.0   .     S
V39     V53    10.0   1_655     S
V39     V55    10.0   .     S
V39     V107    10.001   .     S
V40     V48    10.0   .     S
V40     V54    10.0   1_655     S
V40     V56    10.0   .     S
V40     V108    10.001   .     S
V41     V45    9.999   .     S
V41     V50    10.0   .     S
V41     V49    10.0   .     S
V42     V46    9.999   .     S
V42     V49    10.0   1_565     S
V42     V50    10.0   .     S
V43     V47    9.999   .     S
V43     V52    10.0   .     S
V43     V51    10.0   .     S
V44     V48    9.999   .     S
V44     V51    10.0   1_565     S
V44     V52    10.0   .     S
V45     V64    10.0   1_455     S
V45     V62    10.0   .     S
V45     V102    10.001   .     S
V46     V63    10.0   1_465     S
V46     V61    10.0   1_565     S
V46     V101    10.001   1_565     S
V47     V62    10.0   .     S
V47     V64    10.0   .     S
V47     V104    10.001   .     S
V48     V61    10.0   1_565     S
V48     V63    10.0   1_565     S
V48     V103    10.001   1_565     S
V49     V42    10.0   1_545     S
V49     V53    9.999   .     S
V49     V59    10.0   1_455     S
V50     V54    9.999   .     S
V50     V60    10.0   1_455     S
V51     V44    10.0   1_545     S
V51     V55    9.999   .     S
V51     V57    10.0   .     S
V52     V56    9.999   .     S
V52     V58    10.0   .     S
V53     V63    10.0   1_455     S
V53     V39    10.0   1_455     S
V53     V117    10.001   .     S
V54     V64    10.0   1_455     S
V54     V40    10.0   1_455     S
V54     V118    10.001   .     S
V55     V61    10.0   .     S
V55     V119    10.001   .     S
V56     V62    10.0   .     S
V56     V120    10.001   .     S
V57     V61    9.999   .     S
V57     V34    10.0   1_545     S
V58     V62    9.999   .     S
V59     V63    9.999   .     S
V59     V49    10.0   1_655     S
V59     V36    10.0   1_545     S
V60     V64    9.999   .     S
V60     V50    10.0   1_655     S
V61     V48    10.0   1_545     S
V61     V46    10.0   1_545     S
V61     V126    10.001   1_545     S
V62     V125    10.001   .     S
V63     V46    10.0   1_645     S
V63     V48    10.0   1_545     S
V63     V53    10.0   1_655     S
V63     V128    10.001   1_545     S
V64     V45    10.0   1_655     S
V64     V54    10.0   1_655     S
V64     V127    10.001   .     S
V65     V69    9.999   .     S
V65     V77    10.0   .     S
V65     V85    10.0   .     S
V65     V86    10.0   .     S
V65     V113    10.001   1_554     S
V66     V70    9.999   .     S
V66     V78    10.0   .     S
V66     V86    10.0   .     S
V66     V85    10.0   1_565     S
V66     V114    10.001   1_554     S
V67     V71    9.999   .     S
V67     V79    10.0   .     S
V67     V87    10.0   .     S
V67     V88    10.0   .     S
V67     V115    10.001   1_554     S
V68     V72    9.999   .     S
V68     V80    10.0   .     S
V68     V88    10.0   .     S
V68     V87    10.0   1_565     S
V68     V116    10.001   1_554     S
V69     V73    10.0   .     S
V69     V89    10.0   .     S
V69     V91    10.0   1_455     S
V70     V74    10.0   .     S
V70     V90    10.0   .     S
V70     V92    10.0   1_455     S
V71     V75    10.0   .     S
V71     V91    10.0   .     S
V71     V89    10.0   .     S
V72     V76    10.0   .     S
V72     V92    10.0   .     S
V72     V90    10.0   .     S
V73     V77    9.999   .     S
V73     V84    10.0   .     S
V73     V82    10.0   .     S
V74     V21    10.001   1_565     S
V74     V78    9.999   .     S
V74     V83    10.0   1_565     S
V74     V81    10.0   1_565     S
V75     V79    9.999   .     S
V75     V82    10.0   1_655     S
V75     V84    10.0   .     S
V76     V23    10.001   1_565     S
V76     V80    9.999   .     S
V76     V81    10.0   1_665     S
V76     V83    10.0   1_565     S
V77     V94    10.0   .     S
V77     V93    10.0   .     S
V77     V121    10.001   1_554     S
V78     V93    10.0   1_565     S
V78     V94    10.0   .     S
V78     V122    10.001   1_554     S
V79     V96    10.0   .     S
V79     V95    10.0   .     S
V79     V123    10.001   1_554     S
V80     V95    10.0   1_565     S
V80     V96    10.0   .     S
V80     V124    10.001   1_554     S
V81     V85    9.999   .     S
V81     V91    10.0   1_455     S
V81     V76    10.0   1_445     S
V81     V74    10.0   1_545     S
V81     V14    10.001   1_545     S
V82     V86    9.999   .     S
V82     V92    10.0   1_455     S
V82     V75    10.0   1_455     S
V83     V87    9.999   .     S
V83     V89    10.0   .     S
V83     V74    10.0   1_545     S
V83     V76    10.0   1_545     S
V83     V16    10.001   1_545     S
V84     V88    9.999   .     S
V84     V90    10.0   .     S
V85     V95    10.0   1_455     S
V85     V66    10.0   1_545     S
V85     V97    10.001   1_554     S
V86     V96    10.0   1_455     S
V86     V98    10.001   1_554     S
V87     V93    10.0   .     S
V87     V68    10.0   1_545     S
V87     V99    10.001   1_554     S
V88     V94    10.0   .     S
V88     V100    10.001   1_554     S
V89     V93    9.999   .     S
V90     V94    9.999   .     S
V91     V95    9.999   .     S
V91     V81    10.0   1_655     S
V91     V69    10.0   1_655     S
V92     V96    9.999   .     S
V92     V82    10.0   1_655     S
V92     V70    10.0   1_655     S
V93     V78    10.0   1_545     S
V93     V109    10.001   1_554     S
V94     V110    10.001   1_554     S
V95     V85    10.0   1_655     S
V95     V80    10.0   1_545     S
V95     V111    10.001   1_554     S
V96     V86    10.0   1_655     S
V96     V112    10.001   1_554     S
V97     V101    9.999   .     S
V97     V109    10.0   .     S
V97     V113    10.0   .     S
V97     V114    10.0   1_545     S
V97     V85    10.001   1_556     S
V98     V102    9.999   .     S
V98     V110    10.0   .     S
V98     V114    10.0   .     S
V98     V113    10.0   .     S
V98     V86    10.001   1_556     S
V99     V103    9.999   .     S
V99     V111    10.0   .     S
V99     V115    10.0   .     S
V99     V116    10.0   1_545     S
V99     V87    10.001   1_556     S
V100     V104    9.999   .     S
V100     V112    10.0   .     S
V100     V116    10.0   .     S
V100     V115    10.0   .     S
V100     V88    10.001   1_556     S
V101     V105    10.0   .     S
V101     V128    10.0   1_445     S
V101     V126    10.0   1_545     S
V101     V46    10.001   1_545     S
V102     V106    10.0   .     S
V102     V127    10.0   1_455     S
V102     V125    10.0   .     S
V103     V107    10.0   .     S
V103     V126    10.0   1_545     S
V103     V128    10.0   1_545     S
V103     V48    10.001   1_545     S
V104     V108    10.0   .     S
V104     V125    10.0   .     S
V104     V127    10.0   .     S
V105     V109    9.999   .     S
V105     V119    10.0   .     S
V105     V117    10.0   .     S
V106     V110    9.999   .     S
V106     V120    10.0   .     S
V106     V118    10.0   .     S
V107     V111    9.999   .     S
V107     V117    10.0   1_655     S
V107     V119    10.0   .     S
V108     V112    9.999   .     S
V108     V118    10.0   1_655     S
V108     V120    10.0   .     S
V109     V122    10.0   1_545     S
V109     V121    10.0   .     S
V109     V93    10.001   1_556     S
V110     V121    10.0   .     S
V110     V122    10.0   .     S
V110     V94    10.001   1_556     S
V111     V124    10.0   1_545     S
V111     V123    10.0   .     S
V111     V95    10.001   1_556     S
V112     V123    10.0   .     S
V112     V124    10.0   .     S
V112     V96    10.001   1_556     S
V113     V117    9.999   .     S
V113     V123    10.0   1_455     S
V113     V65    10.001   1_556     S
V114     V118    9.999   .     S
V114     V124    10.0   1_455     S
V114     V97    10.0   1_565     S
V114     V66    10.001   1_556     S
V115     V119    9.999   .     S
V115     V121    10.0   .     S
V115     V67    10.001   1_556     S
V116     V120    9.999   .     S
V116     V122    10.0   .     S
V116     V99    10.0   1_565     S
V116     V68    10.001   1_556     S
V117     V127    10.0   1_455     S
V117     V107    10.0   1_455     S
V118     V128    10.0   1_455     S
V118     V108    10.0   1_455     S
V119     V125    10.0   .     S
V120     V126    10.0   .     S
V121     V125    9.999   .     S
V121     V77    10.001   1_556     S
V122     V126    9.999   .     S
V122     V109    10.0   1_565     S
V122     V78    10.001   1_556     S
V123     V127    9.999   .     S
V123     V113    10.0   1_655     S
V123     V79    10.001   1_556     S
V124     V128    9.999   .     S
V124     V114    10.0   1_655     S
V124     V111    10.0   1_565     S
V124     V80    10.001   1_556     S
V126     V103    10.0   1_565     S
V126     V101    10.0   1_565     S
V126     V61    10.001   1_565     S
V127     V117    10.0   1_655     S
V127     V102    10.0   1_655     S
V128     V118    10.0   1_655     S
V128     V101    10.0   1_665     S
V128     V103    10.0   1_565     S
V128     V63    10.001   1_565     S
