data_wgr
_audit_creation_date              2019-12-31
_audit_creation_method            'Pymatgen'
_symmetry_space_group_name_H-M    'P1'
_symmetry_Int_Tables_number       1
loop_
_symmetry_equiv_pos_as_xyz
  x,y,z
_cell_length_a                    39.1564
_cell_length_b                    39.1564
_cell_length_c                    74.3641
_cell_angle_alpha                 90.0
_cell_angle_beta                 90.0
_cell_angle_gamma                 90.0
loop_
_atom_site_label
_atom_site_type_symbol
_atom_site_fract_x
_atom_site_fract_y
_atom_site_fract_z
V1     V     0.0989   0.4558   0.6869
V2     V     0.0989   0.9558   0.6869
V3     V     0.5989   0.4558   0.6869
V4     V     0.5989   0.9558   0.6869
V5     V     0.0989   0.0442   0.8131
V6     V     0.0989   0.5442   0.8131
V7     V     0.5989   0.0442   0.8131
V8     V     0.5989   0.5442   0.8131
V9     V     0.1511   0.2058   0.6869
V10     V     0.1511   0.7058   0.6869
V11     V     0.6511   0.2058   0.6869
V12     V     0.6511   0.7058   0.6869
V13     V     0.1511   0.2942   0.8131
V14     V     0.1511   0.7942   0.8131
V15     V     0.6511   0.2942   0.8131
V16     V     0.6511   0.7942   0.8131
V17     V     0.3489   0.4558   0.8131
V18     V     0.3489   0.9558   0.8131
V19     V     0.8489   0.4558   0.8131
V20     V     0.8489   0.9558   0.8131
V21     V     0.3489   0.0442   0.6869
V22     V     0.3489   0.5442   0.6869
V23     V     0.8489   0.0442   0.6869
V24     V     0.8489   0.5442   0.6869
V25     V     0.4011   0.2942   0.6869
V26     V     0.4011   0.7942   0.6869
V27     V     0.9011   0.2942   0.6869
V28     V     0.9011   0.7942   0.6869
V29     V     0.4011   0.2058   0.8131
V30     V     0.4011   0.7058   0.8131
V31     V     0.9011   0.2058   0.8131
V32     V     0.9011   0.7058   0.8131
V33     V     0.4192   0.0261   0.9369
V34     V     0.4192   0.5261   0.9369
V35     V     0.9192   0.0261   0.9369
V36     V     0.9192   0.5261   0.9369
V37     V     0.3308   0.0261   0.0631
V38     V     0.3308   0.5261   0.0631
V39     V     0.8308   0.0261   0.0631
V40     V     0.8308   0.5261   0.0631
V41     V     0.1692   0.4739   0.9369
V42     V     0.1692   0.9739   0.9369
V43     V     0.6692   0.4739   0.9369
V44     V     0.6692   0.9739   0.9369
V45     V     0.0808   0.4739   0.0631
V46     V     0.0808   0.9739   0.0631
V47     V     0.5808   0.4739   0.0631
V48     V     0.5808   0.9739   0.0631
V49     V     0.0808   0.2239   0.9369
V50     V     0.0808   0.7239   0.9369
V51     V     0.5808   0.2239   0.9369
V52     V     0.5808   0.7239   0.9369
V53     V     0.1692   0.2239   0.0631
V54     V     0.1692   0.7239   0.0631
V55     V     0.6692   0.2239   0.0631
V56     V     0.6692   0.7239   0.0631
V57     V     0.3308   0.2761   0.9369
V58     V     0.3308   0.7761   0.9369
V59     V     0.8308   0.2761   0.9369
V60     V     0.8308   0.7761   0.9369
V61     V     0.4192   0.2761   0.0631
V62     V     0.4192   0.7761   0.0631
V63     V     0.9192   0.2761   0.0631
V64     V     0.9192   0.7761   0.0631
V65     V     0.1511   0.4558   0.3131
V66     V     0.1511   0.9558   0.3131
V67     V     0.6511   0.4558   0.3131
V68     V     0.6511   0.9558   0.3131
V69     V     0.1511   0.0442   0.1869
V70     V     0.1511   0.5442   0.1869
V71     V     0.6511   0.0442   0.1869
V72     V     0.6511   0.5442   0.1869
V73     V     0.0989   0.2942   0.1869
V74     V     0.0989   0.7942   0.1869
V75     V     0.5989   0.2942   0.1869
V76     V     0.5989   0.7942   0.1869
V77     V     0.0989   0.2058   0.3131
V78     V     0.0989   0.7058   0.3131
V79     V     0.5989   0.2058   0.3131
V80     V     0.5989   0.7058   0.3131
V81     V     0.4011   0.0442   0.3131
V82     V     0.4011   0.5442   0.3131
V83     V     0.9011   0.0442   0.3131
V84     V     0.9011   0.5442   0.3131
V85     V     0.4011   0.4558   0.1869
V86     V     0.4011   0.9558   0.1869
V87     V     0.9011   0.4558   0.1869
V88     V     0.9011   0.9558   0.1869
V89     V     0.3489   0.2058   0.1869
V90     V     0.3489   0.7058   0.1869
V91     V     0.8489   0.2058   0.1869
V92     V     0.8489   0.7058   0.1869
V93     V     0.3489   0.2942   0.3131
V94     V     0.3489   0.7942   0.3131
V95     V     0.8489   0.2942   0.3131
V96     V     0.8489   0.7942   0.3131
V97     V     0.0808   0.2761   0.5631
V98     V     0.0808   0.7761   0.5631
V99     V     0.5808   0.2761   0.5631
V100     V     0.5808   0.7761   0.5631
V101     V     0.1692   0.2761   0.4369
V102     V     0.1692   0.7761   0.4369
V103     V     0.6692   0.2761   0.4369
V104     V     0.6692   0.7761   0.4369
V105     V     0.4192   0.2239   0.4369
V106     V     0.4192   0.7239   0.4369
V107     V     0.9192   0.2239   0.4369
V108     V     0.9192   0.7239   0.4369
V109     V     0.3308   0.2239   0.5631
V110     V     0.3308   0.7239   0.5631
V111     V     0.8308   0.2239   0.5631
V112     V     0.8308   0.7239   0.5631
V113     V     0.4192   0.4739   0.5631
V114     V     0.4192   0.9739   0.5631
V115     V     0.9192   0.4739   0.5631
V116     V     0.9192   0.9739   0.5631
V117     V     0.3308   0.4739   0.4369
V118     V     0.3308   0.9739   0.4369
V119     V     0.8308   0.4739   0.4369
V120     V     0.8308   0.9739   0.4369
V121     V     0.1692   0.0261   0.5631
V122     V     0.1692   0.5261   0.5631
V123     V     0.6692   0.0261   0.5631
V124     V     0.6692   0.5261   0.5631
V125     V     0.0808   0.0261   0.4369
V126     V     0.0808   0.5261   0.4369
V127     V     0.5808   0.0261   0.4369
V128     V     0.5808   0.5261   0.4369
loop_
_geom_bond_atom_site_label_1
_geom_bond_atom_site_label_2
_geom_bond_distance
_geom_bond_site_symmetry_2
_ccdc_geom_bond_type
V1     V6    10.0   .     S
V1     V10    10.0   .     S
V1     V9    10.0   .     S
V1     V27    10.0   1_455     S
V1     V122    10.0   .     S
V2     V5    10.0   1_565     S
V2     V9    10.0   1_565     S
V2     V10    10.0   .     S
V2     V28    10.0   1_455     S
V2     V121    10.0   1_565     S
V3     V8    10.0   .     S
V3     V12    10.0   .     S
V3     V11    10.0   .     S
V3     V25    10.0   .     S
V3     V124    10.0   .     S
V4     V7    10.0   1_565     S
V4     V11    10.0   1_565     S
V4     V12    10.0   .     S
V4     V26    10.0   .     S
V4     V123    10.0   1_565     S
V5     V2    10.0   1_545     S
V5     V14    10.0   1_545     S
V5     V13    10.0   .     S
V5     V31    10.0   1_455     S
V5     V42    10.0   1_545     S
V6     V13    10.0   .     S
V6     V14    10.0   .     S
V6     V32    10.0   1_455     S
V6     V41    10.0   .     S
V7     V4    10.0   1_545     S
V7     V16    10.0   1_545     S
V7     V15    10.0   .     S
V7     V29    10.0   .     S
V7     V44    10.0   1_545     S
V8     V15    10.0   .     S
V8     V16    10.0   .     S
V8     V30    10.0   .     S
V8     V43    10.0   .     S
V9     V2    10.0   1_545     S
V9     V13    10.0   .     S
V9     V21    10.0   .     S
V9     V97    10.0   .     S
V10     V14    10.0   .     S
V10     V22    10.0   .     S
V10     V98    10.0   .     S
V11     V4    10.0   1_545     S
V11     V15    10.0   .     S
V11     V23    10.0   .     S
V11     V99    10.0   .     S
V12     V16    10.0   .     S
V12     V24    10.0   .     S
V12     V100    10.0   .     S
V13     V17    10.0   .     S
V13     V49    10.0   .     S
V14     V5    10.0   1_565     S
V14     V18    10.0   .     S
V14     V50    10.0   .     S
V15     V19    10.0   .     S
V15     V51    10.0   .     S
V16     V7    10.0   1_565     S
V16     V20    10.0   .     S
V16     V52    10.0   .     S
V17     V22    10.0   .     S
V17     V30    10.0   .     S
V17     V29    10.0   .     S
V17     V34    10.0   .     S
V18     V21    10.0   1_565     S
V18     V29    10.0   1_565     S
V18     V30    10.0   .     S
V18     V33    10.0   1_565     S
V19     V24    10.0   .     S
V19     V32    10.0   .     S
V19     V31    10.0   .     S
V19     V36    10.0   .     S
V20     V23    10.0   1_565     S
V20     V31    10.0   1_565     S
V20     V32    10.0   .     S
V20     V35    10.0   1_565     S
V21     V18    10.0   1_545     S
V21     V26    10.0   1_545     S
V21     V25    10.0   .     S
V21     V114    10.0   1_545     S
V22     V25    10.0   .     S
V22     V26    10.0   .     S
V22     V113    10.0   .     S
V23     V20    10.0   1_545     S
V23     V28    10.0   1_545     S
V23     V27    10.0   .     S
V23     V116    10.0   1_545     S
V24     V27    10.0   .     S
V24     V28    10.0   .     S
V24     V115    10.0   .     S
V25     V29    10.0   .     S
V25     V109    10.0   .     S
V26     V30    10.0   .     S
V26     V21    10.0   1_565     S
V26     V110    10.0   .     S
V27     V31    10.0   .     S
V27     V1    10.0   1_655     S
V27     V111    10.0   .     S
V28     V32    10.0   .     S
V28     V23    10.0   1_565     S
V28     V2    10.0   1_655     S
V28     V112    10.0   .     S
V29     V18    10.0   1_545     S
V29     V57    10.0   .     S
V30     V58    10.0   .     S
V31     V20    10.0   1_545     S
V31     V5    10.0   1_655     S
V31     V59    10.0   .     S
V32     V6    10.0   1_655     S
V32     V60    10.0   .     S
V33     V37    10.0   1_556     S
V33     V42    10.0   1_545     S
V33     V44    10.0   1_545     S
V33     V51    10.0   .     S
V33     V18    10.0   1_545     S
V34     V38    10.0   1_556     S
V34     V41    10.0   .     S
V34     V43    10.0   .     S
V34     V52    10.0   .     S
V35     V39    10.0   1_556     S
V35     V44    10.0   1_545     S
V35     V42    10.0   1_645     S
V35     V49    10.0   1_655     S
V35     V20    10.0   1_545     S
V36     V40    10.0   1_556     S
V36     V43    10.0   .     S
V36     V41    10.0   1_655     S
V36     V50    10.0   1_655     S
V37     V33    10.0   1_554     S
V37     V48    10.0   1_545     S
V37     V46    10.0   1_545     S
V37     V53    10.0   .     S
V37     V86    10.0   1_545     S
V38     V34    10.0   1_554     S
V38     V47    10.0   .     S
V38     V45    10.0   .     S
V38     V54    10.0   .     S
V38     V85    10.0   .     S
V39     V35    10.0   1_554     S
V39     V46    10.0   1_645     S
V39     V48    10.0   1_545     S
V39     V55    10.0   .     S
V39     V88    10.0   1_545     S
V40     V36    10.0   1_554     S
V40     V45    10.0   1_655     S
V40     V47    10.0   .     S
V40     V56    10.0   .     S
V40     V87    10.0   .     S
V41     V45    10.0   1_556     S
V41     V36    10.0   1_455     S
V41     V57    10.0   .     S
V42     V46    10.0   1_556     S
V42     V33    10.0   1_565     S
V42     V35    10.0   1_465     S
V42     V58    10.0   .     S
V42     V5    10.0   1_565     S
V43     V47    10.0   1_556     S
V43     V59    10.0   .     S
V44     V48    10.0   1_556     S
V44     V35    10.0   1_565     S
V44     V33    10.0   1_565     S
V44     V60    10.0   .     S
V44     V7    10.0   1_565     S
V45     V41    10.0   1_554     S
V45     V40    10.0   1_455     S
V45     V63    10.0   1_455     S
V45     V70    10.0   .     S
V46     V42    10.0   1_554     S
V46     V39    10.0   1_465     S
V46     V37    10.0   1_565     S
V46     V64    10.0   1_455     S
V46     V69    10.0   1_565     S
V47     V43    10.0   1_554     S
V47     V61    10.0   .     S
V47     V72    10.0   .     S
V48     V44    10.0   1_554     S
V48     V37    10.0   1_565     S
V48     V39    10.0   1_565     S
V48     V62    10.0   .     S
V48     V71    10.0   1_565     S
V49     V53    10.0   1_556     S
V49     V59    10.0   1_455     S
V49     V57    10.0   .     S
V49     V35    10.0   1_455     S
V50     V54    10.0   1_556     S
V50     V60    10.0   1_455     S
V50     V58    10.0   .     S
V50     V36    10.0   1_455     S
V51     V55    10.0   1_556     S
V51     V57    10.0   .     S
V51     V59    10.0   .     S
V52     V56    10.0   1_556     S
V52     V58    10.0   .     S
V52     V60    10.0   .     S
V53     V49    10.0   1_554     S
V53     V61    10.0   .     S
V53     V63    10.0   1_455     S
V53     V73    10.0   .     S
V54     V50    10.0   1_554     S
V54     V62    10.0   .     S
V54     V64    10.0   1_455     S
V54     V74    10.0   .     S
V55     V51    10.0   1_554     S
V55     V63    10.0   .     S
V55     V61    10.0   .     S
V55     V75    10.0   .     S
V56     V52    10.0   1_554     S
V56     V64    10.0   .     S
V56     V62    10.0   .     S
V56     V76    10.0   .     S
V57     V61    10.0   1_556     S
V58     V62    10.0   1_556     S
V59     V49    10.0   1_655     S
V59     V63    10.0   1_556     S
V60     V50    10.0   1_655     S
V60     V64    10.0   1_556     S
V61     V57    10.0   1_554     S
V61     V89    10.0   .     S
V62     V58    10.0   1_554     S
V62     V90    10.0   .     S
V63     V45    10.0   1_655     S
V63     V59    10.0   1_554     S
V63     V53    10.0   1_655     S
V63     V91    10.0   .     S
V64     V46    10.0   1_655     S
V64     V60    10.0   1_554     S
V64     V54    10.0   1_655     S
V64     V92    10.0   .     S
V65     V70    10.0   .     S
V65     V78    10.0   .     S
V65     V77    10.0   .     S
V65     V93    10.0   .     S
V65     V126    10.0   .     S
V66     V69    10.0   1_565     S
V66     V77    10.0   1_565     S
V66     V78    10.0   .     S
V66     V94    10.0   .     S
V66     V125    10.0   1_565     S
V67     V72    10.0   .     S
V67     V80    10.0   .     S
V67     V79    10.0   .     S
V67     V95    10.0   .     S
V67     V128    10.0   .     S
V68     V71    10.0   1_565     S
V68     V79    10.0   1_565     S
V68     V80    10.0   .     S
V68     V96    10.0   .     S
V68     V127    10.0   1_565     S
V69     V66    10.0   1_545     S
V69     V74    10.0   1_545     S
V69     V73    10.0   .     S
V69     V89    10.0   .     S
V69     V46    10.0   1_545     S
V70     V73    10.0   .     S
V70     V74    10.0   .     S
V70     V90    10.0   .     S
V71     V68    10.0   1_545     S
V71     V76    10.0   1_545     S
V71     V75    10.0   .     S
V71     V91    10.0   .     S
V71     V48    10.0   1_545     S
V72     V75    10.0   .     S
V72     V76    10.0   .     S
V72     V92    10.0   .     S
V73     V77    10.0   .     S
V73     V87    10.0   1_455     S
V74     V78    10.0   .     S
V74     V69    10.0   1_565     S
V74     V88    10.0   1_455     S
V75     V79    10.0   .     S
V75     V85    10.0   .     S
V76     V80    10.0   .     S
V76     V71    10.0   1_565     S
V76     V86    10.0   .     S
V77     V66    10.0   1_545     S
V77     V83    10.0   1_455     S
V77     V101    10.0   .     S
V78     V84    10.0   1_455     S
V78     V102    10.0   .     S
V79     V68    10.0   1_545     S
V79     V81    10.0   .     S
V79     V103    10.0   .     S
V80     V82    10.0   .     S
V80     V104    10.0   .     S
V81     V86    10.0   1_545     S
V81     V94    10.0   1_545     S
V81     V93    10.0   .     S
V81     V118    10.0   1_545     S
V82     V85    10.0   .     S
V82     V93    10.0   .     S
V82     V94    10.0   .     S
V82     V117    10.0   .     S
V83     V88    10.0   1_545     S
V83     V96    10.0   1_545     S
V83     V95    10.0   .     S
V83     V77    10.0   1_655     S
V83     V120    10.0   1_545     S
V84     V87    10.0   .     S
V84     V95    10.0   .     S
V84     V96    10.0   .     S
V84     V78    10.0   1_655     S
V84     V119    10.0   .     S
V85     V90    10.0   .     S
V85     V89    10.0   .     S
V86     V81    10.0   1_565     S
V86     V89    10.0   1_565     S
V86     V90    10.0   .     S
V86     V37    10.0   1_565     S
V87     V92    10.0   .     S
V87     V91    10.0   .     S
V87     V73    10.0   1_655     S
V88     V83    10.0   1_565     S
V88     V91    10.0   1_565     S
V88     V92    10.0   .     S
V88     V74    10.0   1_655     S
V88     V39    10.0   1_565     S
V89     V86    10.0   1_545     S
V89     V93    10.0   .     S
V90     V94    10.0   .     S
V91     V88    10.0   1_545     S
V91     V95    10.0   .     S
V92     V96    10.0   .     S
V93     V105    10.0   .     S
V94     V81    10.0   1_565     S
V94     V106    10.0   .     S
V95     V107    10.0   .     S
V96     V83    10.0   1_565     S
V96     V108    10.0   .     S
V97     V101    10.0   .     S
V97     V111    10.0   1_455     S
V97     V109    10.0   .     S
V97     V115    10.0   1_455     S
V98     V102    10.0   .     S
V98     V112    10.0   1_455     S
V98     V110    10.0   .     S
V98     V116    10.0   1_455     S
V99     V103    10.0   .     S
V99     V109    10.0   .     S
V99     V111    10.0   .     S
V99     V113    10.0   .     S
V100     V104    10.0   .     S
V100     V110    10.0   .     S
V100     V112    10.0   .     S
V100     V114    10.0   .     S
V101     V105    10.0   .     S
V101     V107    10.0   1_455     S
V101     V117    10.0   .     S
V102     V106    10.0   .     S
V102     V108    10.0   1_455     S
V102     V118    10.0   .     S
V103     V107    10.0   .     S
V103     V105    10.0   .     S
V103     V119    10.0   .     S
V104     V108    10.0   .     S
V104     V106    10.0   .     S
V104     V120    10.0   .     S
V105     V109    10.0   .     S
V105     V127    10.0   .     S
V106     V110    10.0   .     S
V106     V128    10.0   .     S
V107     V111    10.0   .     S
V107     V101    10.0   1_655     S
V107     V125    10.0   1_655     S
V108     V112    10.0   .     S
V108     V102    10.0   1_655     S
V108     V126    10.0   1_655     S
V109     V121    10.0   .     S
V110     V122    10.0   .     S
V111     V97    10.0   1_655     S
V111     V123    10.0   .     S
V112     V98    10.0   1_655     S
V112     V124    10.0   .     S
V113     V117    10.0   .     S
V113     V122    10.0   .     S
V113     V124    10.0   .     S
V114     V118    10.0   .     S
V114     V121    10.0   1_565     S
V114     V123    10.0   1_565     S
V114     V21    10.0   1_565     S
V115     V119    10.0   .     S
V115     V124    10.0   .     S
V115     V122    10.0   1_655     S
V115     V97    10.0   1_655     S
V116     V120    10.0   .     S
V116     V123    10.0   1_565     S
V116     V121    10.0   1_665     S
V116     V98    10.0   1_655     S
V116     V23    10.0   1_565     S
V117     V128    10.0   .     S
V117     V126    10.0   .     S
V118     V127    10.0   1_565     S
V118     V125    10.0   1_565     S
V118     V81    10.0   1_565     S
V119     V126    10.0   1_655     S
V119     V128    10.0   .     S
V120     V125    10.0   1_665     S
V120     V127    10.0   1_565     S
V120     V83    10.0   1_565     S
V121     V125    10.0   .     S
V121     V114    10.0   1_545     S
V121     V116    10.0   1_445     S
V121     V2    10.0   1_545     S
V122     V126    10.0   .     S
V122     V115    10.0   1_455     S
V123     V127    10.0   .     S
V123     V116    10.0   1_545     S
V123     V114    10.0   1_545     S
V123     V4    10.0   1_545     S
V124     V128    10.0   .     S
V125     V120    10.0   1_445     S
V125     V118    10.0   1_545     S
V125     V107    10.0   1_455     S
V125     V66    10.0   1_545     S
V126     V119    10.0   1_455     S
V126     V108    10.0   1_455     S
V127     V118    10.0   1_545     S
V127     V120    10.0   1_545     S
V127     V68    10.0   1_545     S
