data_wgs
_audit_creation_date              2019-12-31
_audit_creation_method            'Pymatgen'
_symmetry_space_group_name_H-M    'P1'
_symmetry_Int_Tables_number       1
loop_
_symmetry_equiv_pos_as_xyz
  x,y,z
_cell_length_a                    39.176
_cell_length_b                    39.176
_cell_length_c                    77.2413
_cell_angle_alpha                 90.0
_cell_angle_beta                 90.0
_cell_angle_gamma                 90.0
loop_
_atom_site_label
_atom_site_type_symbol
_atom_site_fract_x
_atom_site_fract_y
_atom_site_fract_z
V1     V     0.3492   0.0447   0.8106
V2     V     0.3492   0.5447   0.8106
V3     V     0.8492   0.0447   0.8106
V4     V     0.8492   0.5447   0.8106
V5     V     0.3303   0.0258   0.9394
V6     V     0.3303   0.5258   0.9394
V7     V     0.8303   0.0258   0.9394
V8     V     0.8303   0.5258   0.9394
V9     V     0.1508   0.2053   0.8106
V10     V     0.1508   0.7053   0.8106
V11     V     0.6508   0.2053   0.8106
V12     V     0.6508   0.7053   0.8106
V13     V     0.1697   0.2242   0.9394
V14     V     0.1697   0.7242   0.9394
V15     V     0.6697   0.2242   0.9394
V16     V     0.6697   0.7242   0.9394
V17     V     0.0992   0.4553   0.8106
V18     V     0.0992   0.9553   0.8106
V19     V     0.5992   0.4553   0.8106
V20     V     0.5992   0.9553   0.8106
V21     V     0.0803   0.4742   0.9394
V22     V     0.0803   0.9742   0.9394
V23     V     0.5803   0.4742   0.9394
V24     V     0.5803   0.9742   0.9394
V25     V     0.4008   0.2947   0.8106
V26     V     0.4008   0.7947   0.8106
V27     V     0.9008   0.2947   0.8106
V28     V     0.9008   0.7947   0.8106
V29     V     0.4197   0.2758   0.9394
V30     V     0.4197   0.7758   0.9394
V31     V     0.9197   0.2758   0.9394
V32     V     0.9197   0.7758   0.9394
V33     V     0.1508   0.4553   0.1894
V34     V     0.1508   0.9553   0.1894
V35     V     0.6508   0.4553   0.1894
V36     V     0.6508   0.9553   0.1894
V37     V     0.1697   0.4742   0.0606
V38     V     0.1697   0.9742   0.0606
V39     V     0.6697   0.4742   0.0606
V40     V     0.6697   0.9742   0.0606
V41     V     0.3492   0.2947   0.1894
V42     V     0.3492   0.7947   0.1894
V43     V     0.8492   0.2947   0.1894
V44     V     0.8492   0.7947   0.1894
V45     V     0.3303   0.2758   0.0606
V46     V     0.3303   0.7758   0.0606
V47     V     0.8303   0.2758   0.0606
V48     V     0.8303   0.7758   0.0606
V49     V     0.4197   0.0258   0.0606
V50     V     0.4197   0.5258   0.0606
V51     V     0.9197   0.0258   0.0606
V52     V     0.9197   0.5258   0.0606
V53     V     0.4008   0.0447   0.1894
V54     V     0.4008   0.5447   0.1894
V55     V     0.9008   0.0447   0.1894
V56     V     0.9008   0.5447   0.1894
V57     V     0.0992   0.2053   0.1894
V58     V     0.0992   0.7053   0.1894
V59     V     0.5992   0.2053   0.1894
V60     V     0.5992   0.7053   0.1894
V61     V     0.0803   0.2242   0.0606
V62     V     0.0803   0.7242   0.0606
V63     V     0.5803   0.2242   0.0606
V64     V     0.5803   0.7242   0.0606
V65     V     0.3492   0.4553   0.6894
V66     V     0.3492   0.9553   0.6894
V67     V     0.8492   0.4553   0.6894
V68     V     0.8492   0.9553   0.6894
V69     V     0.3303   0.4742   0.5606
V70     V     0.3303   0.9742   0.5606
V71     V     0.8303   0.4742   0.5606
V72     V     0.8303   0.9742   0.5606
V73     V     0.1508   0.2947   0.6894
V74     V     0.1508   0.7947   0.6894
V75     V     0.6508   0.2947   0.6894
V76     V     0.6508   0.7947   0.6894
V77     V     0.1697   0.2758   0.5606
V78     V     0.1697   0.7758   0.5606
V79     V     0.6697   0.2758   0.5606
V80     V     0.6697   0.7758   0.5606
V81     V     0.0992   0.0447   0.6894
V82     V     0.0992   0.5447   0.6894
V83     V     0.5992   0.0447   0.6894
V84     V     0.5992   0.5447   0.6894
V85     V     0.0803   0.0258   0.5606
V86     V     0.0803   0.5258   0.5606
V87     V     0.5803   0.0258   0.5606
V88     V     0.5803   0.5258   0.5606
V89     V     0.4008   0.2053   0.6894
V90     V     0.4008   0.7053   0.6894
V91     V     0.9008   0.2053   0.6894
V92     V     0.9008   0.7053   0.6894
V93     V     0.4197   0.2242   0.5606
V94     V     0.4197   0.7242   0.5606
V95     V     0.9197   0.2242   0.5606
V96     V     0.9197   0.7242   0.5606
V97     V     0.4197   0.4742   0.4394
V98     V     0.4197   0.9742   0.4394
V99     V     0.9197   0.4742   0.4394
V100     V     0.9197   0.9742   0.4394
V101     V     0.4008   0.4553   0.3106
V102     V     0.4008   0.9553   0.3106
V103     V     0.9008   0.4553   0.3106
V104     V     0.9008   0.9553   0.3106
V105     V     0.0992   0.2947   0.3106
V106     V     0.0992   0.7947   0.3106
V107     V     0.5992   0.2947   0.3106
V108     V     0.5992   0.7947   0.3106
V109     V     0.0803   0.2758   0.4394
V110     V     0.0803   0.7758   0.4394
V111     V     0.5803   0.2758   0.4394
V112     V     0.5803   0.7758   0.4394
V113     V     0.1508   0.0447   0.3106
V114     V     0.1508   0.5447   0.3106
V115     V     0.6508   0.0447   0.3106
V116     V     0.6508   0.5447   0.3106
V117     V     0.1697   0.0258   0.4394
V118     V     0.1697   0.5258   0.4394
V119     V     0.6697   0.0258   0.4394
V120     V     0.6697   0.5258   0.4394
V121     V     0.3303   0.2242   0.4394
V122     V     0.3303   0.7242   0.4394
V123     V     0.8303   0.2242   0.4394
V124     V     0.8303   0.7242   0.4394
V125     V     0.3492   0.2053   0.3106
V126     V     0.3492   0.7053   0.3106
V127     V     0.8492   0.2053   0.3106
V128     V     0.8492   0.7053   0.3106
loop_
_geom_bond_atom_site_label_1
_geom_bond_atom_site_label_2
_geom_bond_distance
_geom_bond_site_symmetry_2
_ccdc_geom_bond_type
V1     V5    9.999   .     S
V1     V9    10.0   .     S
V1     V26    10.0   1_545     S
V1     V25    10.0   .     S
V1     V66    10.001   1_545     S
V2     V6    9.999   .     S
V2     V10    10.0   .     S
V2     V25    10.0   .     S
V2     V26    10.0   .     S
V2     V65    10.001   .     S
V3     V7    9.999   .     S
V3     V11    10.0   .     S
V3     V28    10.0   1_545     S
V3     V27    10.0   .     S
V3     V68    10.001   1_545     S
V4     V8    9.999   .     S
V4     V12    10.0   .     S
V4     V27    10.0   .     S
V4     V28    10.0   .     S
V4     V67    10.001   .     S
V5     V13    10.0   .     S
V5     V24    10.0   1_545     S
V5     V22    10.0   1_545     S
V5     V49    10.001   1_556     S
V6     V14    10.0   .     S
V6     V23    10.0   .     S
V6     V21    10.0   .     S
V6     V50    10.001   1_556     S
V7     V15    10.0   .     S
V7     V22    10.0   1_645     S
V7     V24    10.0   1_545     S
V7     V51    10.001   1_556     S
V8     V16    10.0   .     S
V8     V21    10.0   1_655     S
V8     V23    10.0   .     S
V8     V52    10.001   1_556     S
V9     V13    9.999   .     S
V9     V18    10.0   1_545     S
V9     V17    10.0   .     S
V9     V73    10.001   .     S
V10     V14    9.999   .     S
V10     V17    10.0   .     S
V10     V18    10.0   .     S
V10     V74    10.001   .     S
V11     V15    9.999   .     S
V11     V20    10.0   1_545     S
V11     V19    10.0   .     S
V11     V75    10.001   .     S
V12     V16    9.999   .     S
V12     V19    10.0   .     S
V12     V20    10.0   .     S
V12     V76    10.001   .     S
V13     V31    10.0   1_455     S
V13     V29    10.0   .     S
V13     V61    10.001   1_556     S
V14     V32    10.0   1_455     S
V14     V30    10.0   .     S
V14     V62    10.001   1_556     S
V15     V29    10.0   .     S
V15     V31    10.0   .     S
V15     V63    10.001   1_556     S
V16     V30    10.0   .     S
V16     V32    10.0   .     S
V16     V64    10.001   1_556     S
V17     V21    9.999   .     S
V17     V27    10.0   1_455     S
V17     V82    10.001   .     S
V18     V22    9.999   .     S
V18     V28    10.0   1_455     S
V18     V9    10.0   1_565     S
V18     V81    10.001   1_565     S
V19     V23    9.999   .     S
V19     V25    10.0   .     S
V19     V84    10.001   .     S
V20     V24    9.999   .     S
V20     V26    10.0   .     S
V20     V11    10.0   1_565     S
V20     V83    10.001   1_565     S
V21     V31    10.0   1_455     S
V21     V8    10.0   1_455     S
V21     V37    10.001   1_556     S
V22     V32    10.0   1_455     S
V22     V7    10.0   1_465     S
V22     V5    10.0   1_565     S
V22     V38    10.001   1_556     S
V23     V29    10.0   .     S
V23     V39    10.001   1_556     S
V24     V30    10.0   .     S
V24     V5    10.0   1_565     S
V24     V7    10.0   1_565     S
V24     V40    10.001   1_556     S
V25     V29    9.999   .     S
V25     V89    10.001   .     S
V26     V30    9.999   .     S
V26     V1    10.0   1_565     S
V26     V90    10.001   .     S
V27     V31    9.999   .     S
V27     V17    10.0   1_655     S
V27     V91    10.001   .     S
V28     V32    9.999   .     S
V28     V18    10.0   1_655     S
V28     V3    10.0   1_565     S
V28     V92    10.001   .     S
V29     V45    10.001   1_556     S
V30     V46    10.001   1_556     S
V31     V21    10.0   1_655     S
V31     V13    10.0   1_655     S
V31     V47    10.001   1_556     S
V32     V22    10.0   1_655     S
V32     V14    10.0   1_655     S
V32     V48    10.001   1_556     S
V33     V37    9.999   .     S
V33     V41    10.0   .     S
V33     V58    10.0   .     S
V33     V57    10.0   .     S
V33     V114    10.001   .     S
V34     V38    9.999   .     S
V34     V42    10.0   .     S
V34     V57    10.0   1_565     S
V34     V58    10.0   .     S
V34     V113    10.001   1_565     S
V35     V39    9.999   .     S
V35     V43    10.0   .     S
V35     V60    10.0   .     S
V35     V59    10.0   .     S
V35     V116    10.001   .     S
V36     V40    9.999   .     S
V36     V44    10.0   .     S
V36     V59    10.0   1_565     S
V36     V60    10.0   .     S
V36     V115    10.001   1_565     S
V37     V21    10.001   1_554     S
V37     V45    10.0   .     S
V37     V50    10.0   .     S
V37     V52    10.0   1_455     S
V38     V22    10.001   1_554     S
V38     V46    10.0   .     S
V38     V49    10.0   1_565     S
V38     V51    10.0   1_465     S
V39     V23    10.001   1_554     S
V39     V47    10.0   .     S
V39     V52    10.0   .     S
V39     V50    10.0   .     S
V40     V24    10.001   1_554     S
V40     V48    10.0   .     S
V40     V51    10.0   1_565     S
V40     V49    10.0   1_565     S
V41     V45    9.999   .     S
V41     V54    10.0   .     S
V41     V53    10.0   .     S
V41     V125    10.001   .     S
V42     V46    9.999   .     S
V42     V53    10.0   1_565     S
V42     V54    10.0   .     S
V42     V126    10.001   .     S
V43     V47    9.999   .     S
V43     V56    10.0   .     S
V43     V55    10.0   .     S
V43     V127    10.001   .     S
V44     V48    9.999   .     S
V44     V55    10.0   1_565     S
V44     V56    10.0   .     S
V44     V128    10.001   .     S
V45     V29    10.001   1_554     S
V45     V63    10.0   .     S
V45     V61    10.0   .     S
V46     V30    10.001   1_554     S
V46     V64    10.0   .     S
V46     V62    10.0   .     S
V47     V31    10.001   1_554     S
V47     V61    10.0   1_655     S
V47     V63    10.0   .     S
V48     V32    10.001   1_554     S
V48     V62    10.0   1_655     S
V48     V64    10.0   .     S
V49     V5    10.001   1_554     S
V49     V53    9.999   .     S
V49     V63    10.0   .     S
V49     V38    10.0   1_545     S
V49     V40    10.0   1_545     S
V50     V6    10.001   1_554     S
V50     V54    9.999   .     S
V50     V64    10.0   .     S
V51     V7    10.001   1_554     S
V51     V55    9.999   .     S
V51     V61    10.0   1_655     S
V51     V40    10.0   1_545     S
V51     V38    10.0   1_645     S
V52     V8    10.001   1_554     S
V52     V56    9.999   .     S
V52     V62    10.0   1_655     S
V52     V37    10.0   1_655     S
V53     V42    10.0   1_545     S
V53     V59    10.0   .     S
V53     V102    10.001   1_545     S
V54     V60    10.0   .     S
V54     V101    10.001   .     S
V55     V44    10.0   1_545     S
V55     V57    10.0   1_655     S
V55     V104    10.001   1_545     S
V56     V58    10.0   1_655     S
V56     V103    10.001   .     S
V57     V34    10.0   1_545     S
V57     V61    9.999   .     S
V57     V55    10.0   1_455     S
V57     V105    10.001   .     S
V58     V62    9.999   .     S
V58     V56    10.0   1_455     S
V58     V106    10.001   .     S
V59     V36    10.0   1_545     S
V59     V63    9.999   .     S
V59     V107    10.001   .     S
V60     V64    9.999   .     S
V60     V108    10.001   .     S
V61     V13    10.001   1_554     S
V61     V47    10.0   1_455     S
V61     V51    10.0   1_455     S
V62     V14    10.001   1_554     S
V62     V48    10.0   1_455     S
V62     V52    10.0   1_455     S
V63     V15    10.001   1_554     S
V64     V16    10.001   1_554     S
V65     V69    9.999   .     S
V65     V73    10.0   .     S
V65     V90    10.0   .     S
V65     V89    10.0   .     S
V66     V70    9.999   .     S
V66     V74    10.0   .     S
V66     V89    10.0   1_565     S
V66     V90    10.0   .     S
V66     V1    10.001   1_565     S
V67     V71    9.999   .     S
V67     V75    10.0   .     S
V67     V92    10.0   .     S
V67     V91    10.0   .     S
V68     V72    9.999   .     S
V68     V76    10.0   .     S
V68     V91    10.0   1_565     S
V68     V92    10.0   .     S
V68     V3    10.001   1_565     S
V69     V77    10.0   .     S
V69     V88    10.0   .     S
V69     V86    10.0   .     S
V69     V97    10.001   .     S
V70     V78    10.0   .     S
V70     V87    10.0   1_565     S
V70     V85    10.0   1_565     S
V70     V98    10.001   .     S
V71     V79    10.0   .     S
V71     V86    10.0   1_655     S
V71     V88    10.0   .     S
V71     V99    10.001   .     S
V72     V80    10.0   .     S
V72     V85    10.0   1_665     S
V72     V87    10.0   1_565     S
V72     V100    10.001   .     S
V73     V77    9.999   .     S
V73     V82    10.0   .     S
V73     V81    10.0   .     S
V74     V78    9.999   .     S
V74     V81    10.0   1_565     S
V74     V82    10.0   .     S
V75     V79    9.999   .     S
V75     V84    10.0   .     S
V75     V83    10.0   .     S
V76     V80    9.999   .     S
V76     V83    10.0   1_565     S
V76     V84    10.0   .     S
V77     V95    10.0   1_455     S
V77     V93    10.0   .     S
V77     V109    10.001   .     S
V78     V96    10.0   1_455     S
V78     V94    10.0   .     S
V78     V110    10.001   .     S
V79     V93    10.0   .     S
V79     V95    10.0   .     S
V79     V111    10.001   .     S
V80     V94    10.0   .     S
V80     V96    10.0   .     S
V80     V112    10.001   .     S
V81     V74    10.0   1_545     S
V81     V85    9.999   .     S
V81     V91    10.0   1_455     S
V81     V18    10.001   1_545     S
V82     V86    9.999   .     S
V82     V92    10.0   1_455     S
V83     V76    10.0   1_545     S
V83     V87    9.999   .     S
V83     V89    10.0   .     S
V83     V20    10.001   1_545     S
V84     V88    9.999   .     S
V84     V90    10.0   .     S
V85     V95    10.0   1_455     S
V85     V72    10.0   1_445     S
V85     V70    10.0   1_545     S
V85     V117    10.001   .     S
V86     V96    10.0   1_455     S
V86     V71    10.0   1_455     S
V86     V118    10.001   .     S
V87     V93    10.0   .     S
V87     V70    10.0   1_545     S
V87     V72    10.0   1_545     S
V87     V119    10.001   .     S
V88     V94    10.0   .     S
V88     V120    10.001   .     S
V89     V66    10.0   1_545     S
V89     V93    9.999   .     S
V90     V94    9.999   .     S
V91     V68    10.0   1_545     S
V91     V95    9.999   .     S
V91     V81    10.0   1_655     S
V92     V96    9.999   .     S
V92     V82    10.0   1_655     S
V93     V121    10.001   .     S
V94     V122    10.001   .     S
V95     V85    10.0   1_655     S
V95     V77    10.0   1_655     S
V95     V123    10.001   .     S
V96     V86    10.0   1_655     S
V96     V78    10.0   1_655     S
V96     V124    10.001   .     S
V97     V101    9.999   .     S
V97     V111    10.0   .     S
V97     V118    10.0   .     S
V97     V120    10.0   .     S
V98     V102    9.999   .     S
V98     V112    10.0   .     S
V98     V117    10.0   1_565     S
V98     V119    10.0   1_565     S
V99     V103    9.999   .     S
V99     V109    10.0   1_655     S
V99     V120    10.0   .     S
V99     V118    10.0   1_655     S
V100     V104    9.999   .     S
V100     V110    10.0   1_655     S
V100     V119    10.0   1_565     S
V100     V117    10.0   1_665     S
V101     V107    10.0   .     S
V101     V126    10.0   .     S
V101     V125    10.0   .     S
V102     V53    10.001   1_565     S
V102     V108    10.0   .     S
V102     V125    10.0   1_565     S
V102     V126    10.0   .     S
V103     V105    10.0   1_655     S
V103     V128    10.0   .     S
V103     V127    10.0   .     S
V104     V55    10.001   1_565     S
V104     V106    10.0   1_655     S
V104     V127    10.0   1_565     S
V104     V128    10.0   .     S
V105     V109    9.999   .     S
V105     V103    10.0   1_455     S
V105     V114    10.0   .     S
V105     V113    10.0   .     S
V106     V110    9.999   .     S
V106     V104    10.0   1_455     S
V106     V113    10.0   1_565     S
V106     V114    10.0   .     S
V107     V111    9.999   .     S
V107     V116    10.0   .     S
V107     V115    10.0   .     S
V108     V112    9.999   .     S
V108     V115    10.0   1_565     S
V108     V116    10.0   .     S
V109     V99    10.0   1_455     S
V109     V123    10.0   1_455     S
V109     V121    10.0   .     S
V110     V100    10.0   1_455     S
V110     V124    10.0   1_455     S
V110     V122    10.0   .     S
V111     V121    10.0   .     S
V111     V123    10.0   .     S
V112     V122    10.0   .     S
V112     V124    10.0   .     S
V113     V106    10.0   1_545     S
V113     V117    9.999   .     S
V113     V125    10.0   .     S
V113     V34    10.001   1_545     S
V114     V118    9.999   .     S
V114     V126    10.0   .     S
V115     V108    10.0   1_545     S
V115     V119    9.999   .     S
V115     V127    10.0   .     S
V115     V36    10.001   1_545     S
V116     V120    9.999   .     S
V116     V128    10.0   .     S
V117     V98    10.0   1_545     S
V117     V121    10.0   .     S
V117     V100    10.0   1_445     S
V118     V122    10.0   .     S
V118     V99    10.0   1_455     S
V119     V100    10.0   1_545     S
V119     V123    10.0   .     S
V119     V98    10.0   1_545     S
V120     V124    10.0   .     S
V121     V125    9.999   .     S
V122     V126    9.999   .     S
V123     V127    9.999   .     S
V123     V109    10.0   1_655     S
V124     V128    9.999   .     S
V124     V110    10.0   1_655     S
V125     V102    10.0   1_545     S
V127     V104    10.0   1_545     S
