data_wgt
_audit_creation_date              2019-12-31
_audit_creation_method            'Pymatgen'
_symmetry_space_group_name_H-M    'P1'
_symmetry_Int_Tables_number       1
loop_
_symmetry_equiv_pos_as_xyz
  x,y,z
_cell_length_a                    39.4518
_cell_length_b                    39.4518
_cell_length_c                    37.946
_cell_angle_alpha                 90.0
_cell_angle_beta                 90.0
_cell_angle_gamma                 90.0
loop_
_atom_site_label
_atom_site_type_symbol
_atom_site_fract_x
_atom_site_fract_y
_atom_site_fract_z
V1     V     0.3959   0.4277   0.75
V2     V     0.3959   0.9277   0.75
V3     V     0.8959   0.4277   0.75
V4     V     0.8959   0.9277   0.75
V5     V     0.3541   0.1777   0.75
V6     V     0.3541   0.6777   0.75
V7     V     0.8541   0.1777   0.75
V8     V     0.8541   0.6777   0.75
V9     V     0.1041   0.0723   0.75
V10     V     0.1041   0.5723   0.75
V11     V     0.6041   0.0723   0.75
V12     V     0.6041   0.5723   0.75
V13     V     0.1459   0.3223   0.75
V14     V     0.1459   0.8223   0.75
V15     V     0.6459   0.3223   0.75
V16     V     0.6459   0.8223   0.75
V17     V     0.3223   0.3959   0.5
V18     V     0.3223   0.8959   0.5
V19     V     0.8223   0.3959   0.5
V20     V     0.8223   0.8959   0.5
V21     V     0.0723   0.3541   0.5
V22     V     0.0723   0.8541   0.5
V23     V     0.5723   0.3541   0.5
V24     V     0.5723   0.8541   0.5
V25     V     0.4277   0.1459   0.5
V26     V     0.4277   0.6459   0.5
V27     V     0.9277   0.1459   0.5
V28     V     0.9277   0.6459   0.5
V29     V     0.1777   0.1041   0.5
V30     V     0.1777   0.6041   0.5
V31     V     0.6777   0.1041   0.5
V32     V     0.6777   0.6041   0.5
V33     V     0.3959   0.0723   0.25
V34     V     0.3959   0.5723   0.25
V35     V     0.8959   0.0723   0.25
V36     V     0.8959   0.5723   0.25
V37     V     0.3541   0.3223   0.25
V38     V     0.3541   0.8223   0.25
V39     V     0.8541   0.3223   0.25
V40     V     0.8541   0.8223   0.25
V41     V     0.1459   0.1777   0.25
V42     V     0.1459   0.6777   0.25
V43     V     0.6459   0.1777   0.25
V44     V     0.6459   0.6777   0.25
V45     V     0.1041   0.4277   0.25
V46     V     0.1041   0.9277   0.25
V47     V     0.6041   0.4277   0.25
V48     V     0.6041   0.9277   0.25
V49     V     0.1777   0.3959   0.0
V50     V     0.1777   0.8959   0.0
V51     V     0.6777   0.3959   0.0
V52     V     0.6777   0.8959   0.0
V53     V     0.4277   0.3541   0.0
V54     V     0.4277   0.8541   0.0
V55     V     0.9277   0.3541   0.0
V56     V     0.9277   0.8541   0.0
V57     V     0.0723   0.1459   0.0
V58     V     0.0723   0.6459   0.0
V59     V     0.5723   0.1459   0.0
V60     V     0.5723   0.6459   0.0
V61     V     0.3223   0.1041   0.0
V62     V     0.3223   0.6041   0.0
V63     V     0.8223   0.1041   0.0
V64     V     0.8223   0.6041   0.0
loop_
_geom_bond_atom_site_label_1
_geom_bond_atom_site_label_2
_geom_bond_distance
_geom_bond_site_symmetry_2
_ccdc_geom_bond_type
V1     V6    10.0   .     S
V1     V5    10.0   .     S
V1     V12    10.0   .     S
V1     V53    10.0   1_556     S
V1     V17    10.0   .     S
V2     V5    10.0   1_565     S
V2     V6    10.0   .     S
V2     V11    10.0   1_565     S
V2     V54    10.0   1_556     S
V2     V18    10.0   .     S
V3     V8    10.0   .     S
V3     V7    10.0   .     S
V3     V10    10.0   1_655     S
V3     V55    10.0   1_556     S
V3     V19    10.0   .     S
V4     V7    10.0   1_565     S
V4     V8    10.0   .     S
V4     V9    10.0   1_665     S
V4     V56    10.0   1_556     S
V4     V20    10.0   .     S
V5     V2    10.0   1_545     S
V5     V13    10.0   .     S
V5     V61    10.0   1_556     S
V5     V25    10.0   .     S
V6     V14    10.0   .     S
V6     V62    10.0   1_556     S
V6     V26    10.0   .     S
V7     V4    10.0   1_545     S
V7     V15    10.0   .     S
V7     V63    10.0   1_556     S
V7     V27    10.0   .     S
V8     V16    10.0   .     S
V8     V64    10.0   1_556     S
V8     V28    10.0   .     S
V9     V14    10.0   1_545     S
V9     V13    10.0   .     S
V9     V4    10.0   1_445     S
V9     V57    10.0   1_556     S
V9     V29    10.0   .     S
V10     V13    10.0   .     S
V10     V14    10.0   .     S
V10     V3    10.0   1_455     S
V10     V58    10.0   1_556     S
V10     V30    10.0   .     S
V11     V16    10.0   1_545     S
V11     V15    10.0   .     S
V11     V2    10.0   1_545     S
V11     V59    10.0   1_556     S
V11     V31    10.0   .     S
V12     V15    10.0   .     S
V12     V16    10.0   .     S
V12     V60    10.0   1_556     S
V12     V32    10.0   .     S
V13     V49    10.0   1_556     S
V13     V21    10.0   .     S
V14     V9    10.0   1_565     S
V14     V50    10.0   1_556     S
V14     V22    10.0   .     S
V15     V51    10.0   1_556     S
V15     V23    10.0   .     S
V16     V11    10.0   1_565     S
V16     V52    10.0   1_556     S
V16     V24    10.0   .     S
V17     V21    10.0   .     S
V17     V23    10.0   .     S
V17     V30    10.0   .     S
V17     V37    10.0   .     S
V18     V22    10.0   .     S
V18     V24    10.0   .     S
V18     V29    10.0   1_565     S
V18     V38    10.0   .     S
V19     V23    10.0   .     S
V19     V21    10.0   1_655     S
V19     V32    10.0   .     S
V19     V39    10.0   .     S
V20     V24    10.0   .     S
V20     V22    10.0   1_655     S
V20     V31    10.0   1_565     S
V20     V40    10.0   .     S
V21     V19    10.0   1_455     S
V21     V27    10.0   1_455     S
V21     V45    10.0   .     S
V22     V20    10.0   1_455     S
V22     V28    10.0   1_455     S
V22     V46    10.0   .     S
V23     V25    10.0   .     S
V23     V47    10.0   .     S
V24     V26    10.0   .     S
V24     V48    10.0   .     S
V25     V31    10.0   .     S
V25     V29    10.0   .     S
V25     V33    10.0   .     S
V26     V32    10.0   .     S
V26     V30    10.0   .     S
V26     V34    10.0   .     S
V27     V29    10.0   1_655     S
V27     V31    10.0   .     S
V27     V21    10.0   1_655     S
V27     V35    10.0   .     S
V28     V30    10.0   1_655     S
V28     V32    10.0   .     S
V28     V22    10.0   1_655     S
V28     V36    10.0   .     S
V29     V27    10.0   1_455     S
V29     V18    10.0   1_545     S
V29     V41    10.0   .     S
V30     V28    10.0   1_455     S
V30     V42    10.0   .     S
V31     V20    10.0   1_545     S
V31     V43    10.0   .     S
V32     V44    10.0   .     S
V33     V38    10.0   1_545     S
V33     V37    10.0   .     S
V33     V48    10.0   1_545     S
V33     V61    10.0   .     S
V34     V37    10.0   .     S
V34     V38    10.0   .     S
V34     V47    10.0   .     S
V34     V62    10.0   .     S
V35     V40    10.0   1_545     S
V35     V39    10.0   .     S
V35     V46    10.0   1_645     S
V35     V63    10.0   .     S
V36     V39    10.0   .     S
V36     V40    10.0   .     S
V36     V45    10.0   1_655     S
V36     V64    10.0   .     S
V37     V41    10.0   .     S
V37     V53    10.0   .     S
V38     V33    10.0   1_565     S
V38     V42    10.0   .     S
V38     V54    10.0   .     S
V39     V43    10.0   .     S
V39     V55    10.0   .     S
V40     V35    10.0   1_565     S
V40     V44    10.0   .     S
V40     V56    10.0   .     S
V41     V45    10.0   .     S
V41     V46    10.0   1_545     S
V41     V57    10.0   .     S
V42     V46    10.0   .     S
V42     V45    10.0   .     S
V42     V58    10.0   .     S
V43     V47    10.0   .     S
V43     V48    10.0   1_545     S
V43     V59    10.0   .     S
V44     V48    10.0   .     S
V44     V47    10.0   .     S
V44     V60    10.0   .     S
V45     V36    10.0   1_455     S
V45     V49    10.0   .     S
V46     V41    10.0   1_565     S
V46     V35    10.0   1_465     S
V46     V50    10.0   .     S
V47     V51    10.0   .     S
V48     V43    10.0   1_565     S
V48     V33    10.0   1_565     S
V48     V52    10.0   .     S
V49     V13    10.0   1_554     S
V49     V53    10.0   .     S
V49     V55    10.0   1_455     S
V49     V62    10.0   .     S
V50     V14    10.0   1_554     S
V50     V54    10.0   .     S
V50     V56    10.0   1_455     S
V50     V61    10.0   1_565     S
V51     V15    10.0   1_554     S
V51     V55    10.0   .     S
V51     V53    10.0   .     S
V51     V64    10.0   .     S
V52     V16    10.0   1_554     S
V52     V56    10.0   .     S
V52     V54    10.0   .     S
V52     V63    10.0   1_565     S
V53     V1    10.0   1_554     S
V53     V59    10.0   .     S
V54     V2    10.0   1_554     S
V54     V60    10.0   .     S
V55     V3    10.0   1_554     S
V55     V49    10.0   1_655     S
V55     V57    10.0   1_655     S
V56     V4    10.0   1_554     S
V56     V50    10.0   1_655     S
V56     V58    10.0   1_655     S
V57     V9    10.0   1_554     S
V57     V63    10.0   1_455     S
V57     V61    10.0   .     S
V57     V55    10.0   1_455     S
V58     V10    10.0   1_554     S
V58     V64    10.0   1_455     S
V58     V62    10.0   .     S
V58     V56    10.0   1_455     S
V59     V11    10.0   1_554     S
V59     V61    10.0   .     S
V59     V63    10.0   .     S
V60     V12    10.0   1_554     S
V60     V62    10.0   .     S
V60     V64    10.0   .     S
V61     V5    10.0   1_554     S
V61     V50    10.0   1_545     S
V62     V6    10.0   1_554     S
V63     V7    10.0   1_554     S
V63     V57    10.0   1_655     S
V63     V52    10.0   1_545     S
V64     V8    10.0   1_554     S
V64     V58    10.0   1_655     S
