data_wgu
_audit_creation_date              2019-12-31
_audit_creation_method            'Pymatgen'
_symmetry_space_group_name_H-M    'P1'
_symmetry_Int_Tables_number       1
loop_
_symmetry_equiv_pos_as_xyz
  x,y,z
_cell_length_a                    39.5174
_cell_length_b                    39.5174
_cell_length_c                    36.3576
_cell_angle_alpha                 90.0
_cell_angle_beta                 90.0
_cell_angle_gamma                 90.0
loop_
_atom_site_label
_atom_site_type_symbol
_atom_site_fract_x
_atom_site_fract_y
_atom_site_fract_z
V1     V     0.18   0.3554   0.25
V2     V     0.18   0.3554   0.75
V3     V     0.18   0.8554   0.25
V4     V     0.18   0.8554   0.75
V5     V     0.68   0.3554   0.25
V6     V     0.68   0.3554   0.75
V7     V     0.68   0.8554   0.25
V8     V     0.68   0.8554   0.75
V9     V     0.32   0.1446   0.25
V10     V     0.32   0.1446   0.75
V11     V     0.32   0.6446   0.25
V12     V     0.32   0.6446   0.75
V13     V     0.82   0.1446   0.25
V14     V     0.82   0.1446   0.75
V15     V     0.82   0.6446   0.25
V16     V     0.82   0.6446   0.75
V17     V     0.07   0.1054   0.25
V18     V     0.07   0.1054   0.75
V19     V     0.07   0.6054   0.25
V20     V     0.07   0.6054   0.75
V21     V     0.57   0.1054   0.25
V22     V     0.57   0.1054   0.75
V23     V     0.57   0.6054   0.25
V24     V     0.57   0.6054   0.75
V25     V     0.43   0.3946   0.25
V26     V     0.43   0.3946   0.75
V27     V     0.43   0.8946   0.25
V28     V     0.43   0.8946   0.75
V29     V     0.93   0.3946   0.25
V30     V     0.93   0.3946   0.75
V31     V     0.93   0.8946   0.25
V32     V     0.93   0.8946   0.75
V33     V     0.1446   0.18   0.0
V34     V     0.1446   0.18   0.5
V35     V     0.1446   0.68   0.0
V36     V     0.1446   0.68   0.5
V37     V     0.6446   0.18   0.0
V38     V     0.6446   0.18   0.5
V39     V     0.6446   0.68   0.0
V40     V     0.6446   0.68   0.5
V41     V     0.3554   0.32   0.0
V42     V     0.3554   0.32   0.5
V43     V     0.3554   0.82   0.0
V44     V     0.3554   0.82   0.5
V45     V     0.8554   0.32   0.0
V46     V     0.8554   0.32   0.5
V47     V     0.8554   0.82   0.0
V48     V     0.8554   0.82   0.5
V49     V     0.3946   0.07   0.0
V50     V     0.3946   0.07   0.5
V51     V     0.3946   0.57   0.0
V52     V     0.3946   0.57   0.5
V53     V     0.8946   0.07   0.0
V54     V     0.8946   0.07   0.5
V55     V     0.8946   0.57   0.0
V56     V     0.8946   0.57   0.5
V57     V     0.1054   0.43   0.0
V58     V     0.1054   0.43   0.5
V59     V     0.1054   0.93   0.0
V60     V     0.1054   0.93   0.5
V61     V     0.6054   0.43   0.0
V62     V     0.6054   0.43   0.5
V63     V     0.6054   0.93   0.0
V64     V     0.6054   0.93   0.5
loop_
_geom_bond_atom_site_label_1
_geom_bond_atom_site_label_2
_geom_bond_distance
_geom_bond_site_symmetry_2
_ccdc_geom_bond_type
V1     V9    10.0   .     S
V1     V25    10.0   .     S
V1     V29    10.0   1_455     S
V1     V58    10.0   .     S
V1     V57    10.0   .     S
V2     V10    10.0   .     S
V2     V26    10.0   .     S
V2     V30    10.0   1_455     S
V2     V57    10.0   1_556     S
V2     V58    10.0   .     S
V3     V11    10.0   .     S
V3     V27    10.0   .     S
V3     V31    10.0   1_455     S
V3     V60    10.0   .     S
V3     V59    10.0   .     S
V4     V12    10.0   .     S
V4     V28    10.0   .     S
V4     V32    10.0   1_455     S
V4     V59    10.0   1_556     S
V4     V60    10.0   .     S
V5     V13    10.0   .     S
V5     V29    10.0   .     S
V5     V25    10.0   .     S
V5     V62    10.0   .     S
V5     V61    10.0   .     S
V6     V14    10.0   .     S
V6     V30    10.0   .     S
V6     V26    10.0   .     S
V6     V61    10.0   1_556     S
V6     V62    10.0   .     S
V7     V15    10.0   .     S
V7     V31    10.0   .     S
V7     V27    10.0   .     S
V7     V64    10.0   .     S
V7     V63    10.0   .     S
V8     V16    10.0   .     S
V8     V32    10.0   .     S
V8     V28    10.0   .     S
V8     V63    10.0   1_556     S
V8     V64    10.0   .     S
V9     V21    10.0   .     S
V9     V17    10.0   .     S
V9     V50    10.0   .     S
V9     V49    10.0   .     S
V10     V22    10.0   .     S
V10     V18    10.0   .     S
V10     V49    10.0   1_556     S
V10     V50    10.0   .     S
V11     V23    10.0   .     S
V11     V19    10.0   .     S
V11     V52    10.0   .     S
V11     V51    10.0   .     S
V12     V24    10.0   .     S
V12     V20    10.0   .     S
V12     V51    10.0   1_556     S
V12     V52    10.0   .     S
V13     V17    10.0   1_655     S
V13     V21    10.0   .     S
V13     V54    10.0   .     S
V13     V53    10.0   .     S
V14     V18    10.0   1_655     S
V14     V22    10.0   .     S
V14     V53    10.0   1_556     S
V14     V54    10.0   .     S
V15     V19    10.0   1_655     S
V15     V23    10.0   .     S
V15     V56    10.0   .     S
V15     V55    10.0   .     S
V16     V20    10.0   1_655     S
V16     V24    10.0   .     S
V16     V55    10.0   1_556     S
V16     V56    10.0   .     S
V17     V13    10.0   1_455     S
V17     V31    10.0   1_445     S
V17     V34    10.0   .     S
V17     V33    10.0   .     S
V18     V14    10.0   1_455     S
V18     V32    10.0   1_445     S
V18     V33    10.0   1_556     S
V18     V34    10.0   .     S
V19     V15    10.0   1_455     S
V19     V29    10.0   1_455     S
V19     V36    10.0   .     S
V19     V35    10.0   .     S
V20     V16    10.0   1_455     S
V20     V30    10.0   1_455     S
V20     V35    10.0   1_556     S
V20     V36    10.0   .     S
V21     V27    10.0   1_545     S
V21     V38    10.0   .     S
V21     V37    10.0   .     S
V22     V28    10.0   1_545     S
V22     V37    10.0   1_556     S
V22     V38    10.0   .     S
V23     V25    10.0   .     S
V23     V40    10.0   .     S
V23     V39    10.0   .     S
V24     V26    10.0   .     S
V24     V39    10.0   1_556     S
V24     V40    10.0   .     S
V25     V42    10.0   .     S
V25     V41    10.0   .     S
V26     V41    10.0   1_556     S
V26     V42    10.0   .     S
V27     V21    10.0   1_565     S
V27     V44    10.0   .     S
V27     V43    10.0   .     S
V28     V22    10.0   1_565     S
V28     V43    10.0   1_556     S
V28     V44    10.0   .     S
V29     V19    10.0   1_655     S
V29     V1    10.0   1_655     S
V29     V46    10.0   .     S
V29     V45    10.0   .     S
V30     V20    10.0   1_655     S
V30     V2    10.0   1_655     S
V30     V45    10.0   1_556     S
V30     V46    10.0   .     S
V31     V17    10.0   1_665     S
V31     V3    10.0   1_655     S
V31     V48    10.0   .     S
V31     V47    10.0   .     S
V32     V18    10.0   1_665     S
V32     V4    10.0   1_655     S
V32     V47    10.0   1_556     S
V32     V48    10.0   .     S
V33     V41    10.0   .     S
V33     V57    10.0   .     S
V33     V59    10.0   1_545     S
V33     V18    10.0   1_554     S
V34     V42    10.0   .     S
V34     V58    10.0   .     S
V34     V60    10.0   1_545     S
V35     V43    10.0   .     S
V35     V59    10.0   .     S
V35     V57    10.0   .     S
V35     V20    10.0   1_554     S
V36     V44    10.0   .     S
V36     V60    10.0   .     S
V36     V58    10.0   .     S
V37     V45    10.0   .     S
V37     V61    10.0   .     S
V37     V63    10.0   1_545     S
V37     V22    10.0   1_554     S
V38     V46    10.0   .     S
V38     V62    10.0   .     S
V38     V64    10.0   1_545     S
V39     V47    10.0   .     S
V39     V63    10.0   .     S
V39     V61    10.0   .     S
V39     V24    10.0   1_554     S
V40     V48    10.0   .     S
V40     V64    10.0   .     S
V40     V62    10.0   .     S
V41     V51    10.0   .     S
V41     V49    10.0   .     S
V41     V26    10.0   1_554     S
V42     V52    10.0   .     S
V42     V50    10.0   .     S
V43     V49    10.0   1_565     S
V43     V51    10.0   .     S
V43     V28    10.0   1_554     S
V44     V50    10.0   1_565     S
V44     V52    10.0   .     S
V45     V55    10.0   .     S
V45     V53    10.0   .     S
V45     V30    10.0   1_554     S
V46     V56    10.0   .     S
V46     V54    10.0   .     S
V47     V53    10.0   1_565     S
V47     V55    10.0   .     S
V47     V32    10.0   1_554     S
V48     V54    10.0   1_565     S
V48     V56    10.0   .     S
V49     V43    10.0   1_545     S
V49     V63    10.0   1_545     S
V49     V10    10.0   1_554     S
V50     V44    10.0   1_545     S
V50     V64    10.0   1_545     S
V51     V61    10.0   .     S
V51     V12    10.0   1_554     S
V52     V62    10.0   .     S
V53     V47    10.0   1_545     S
V53     V59    10.0   1_645     S
V53     V14    10.0   1_554     S
V54     V48    10.0   1_545     S
V54     V60    10.0   1_645     S
V55     V57    10.0   1_655     S
V55     V16    10.0   1_554     S
V56     V58    10.0   1_655     S
V57     V55    10.0   1_455     S
V57     V2    10.0   1_554     S
V58     V56    10.0   1_455     S
V59     V53    10.0   1_465     S
V59     V33    10.0   1_565     S
V59     V4    10.0   1_554     S
V60     V54    10.0   1_465     S
V60     V34    10.0   1_565     S
V61     V6    10.0   1_554     S
V63     V49    10.0   1_565     S
V63     V37    10.0   1_565     S
V63     V8    10.0   1_554     S
V64     V50    10.0   1_565     S
V64     V38    10.0   1_565     S
