data_wgv
_audit_creation_date              2019-12-31
_audit_creation_method            'Pymatgen'
_symmetry_space_group_name_H-M    'P1'
_symmetry_Int_Tables_number       1
loop_
_symmetry_equiv_pos_as_xyz
  x,y,z
_cell_length_a                    36.2944
_cell_length_b                    36.2944
_cell_length_c                    27.3919
_cell_angle_alpha                 90.0
_cell_angle_beta                 90.0
_cell_angle_gamma                 90.0
loop_
_atom_site_label
_atom_site_type_symbol
_atom_site_fract_x
_atom_site_fract_y
_atom_site_fract_z
V1     V     0.1526   0.3474   0.6825
V2     V     0.1526   0.8474   0.6825
V3     V     0.6526   0.3474   0.6825
V4     V     0.6526   0.8474   0.6825
V5     V     0.3474   0.1526   0.6825
V6     V     0.3474   0.6526   0.6825
V7     V     0.8474   0.1526   0.6825
V8     V     0.8474   0.6526   0.6825
V9     V     0.0974   0.0974   0.8175
V10     V     0.0974   0.5974   0.8175
V11     V     0.5974   0.0974   0.8175
V12     V     0.5974   0.5974   0.8175
V13     V     0.4026   0.4026   0.8175
V14     V     0.4026   0.9026   0.8175
V15     V     0.9026   0.4026   0.8175
V16     V     0.9026   0.9026   0.8175
V17     V     0.3474   0.1526   0.3175
V18     V     0.3474   0.6526   0.3175
V19     V     0.8474   0.1526   0.3175
V20     V     0.8474   0.6526   0.3175
V21     V     0.1526   0.3474   0.3175
V22     V     0.1526   0.8474   0.3175
V23     V     0.6526   0.3474   0.3175
V24     V     0.6526   0.8474   0.3175
V25     V     0.0974   0.0974   0.1825
V26     V     0.0974   0.5974   0.1825
V27     V     0.5974   0.0974   0.1825
V28     V     0.5974   0.5974   0.1825
V29     V     0.4026   0.4026   0.1825
V30     V     0.4026   0.9026   0.1825
V31     V     0.9026   0.4026   0.1825
V32     V     0.9026   0.9026   0.1825
loop_
_geom_bond_atom_site_label_1
_geom_bond_atom_site_label_2
_geom_bond_distance
_geom_bond_site_symmetry_2
_ccdc_geom_bond_type
V1     V5    10.0   .     S
V1     V15    10.0   1_455     S
V1     V10    10.0   .     S
V1     V9    10.0   .     S
V1     V13    10.0   .     S
V1     V21    10.0   .     S
V2     V6    10.0   .     S
V2     V16    10.0   1_455     S
V2     V9    10.0   1_565     S
V2     V10    10.0   .     S
V2     V14    10.0   .     S
V2     V22    10.0   .     S
V3     V7    10.0   .     S
V3     V13    10.0   .     S
V3     V12    10.0   .     S
V3     V11    10.0   .     S
V3     V15    10.0   .     S
V3     V23    10.0   .     S
V4     V8    10.0   .     S
V4     V14    10.0   .     S
V4     V11    10.0   1_565     S
V4     V12    10.0   .     S
V4     V16    10.0   .     S
V4     V24    10.0   .     S
V5     V11    10.0   .     S
V5     V14    10.0   1_545     S
V5     V9    10.0   .     S
V5     V13    10.0   .     S
V5     V17    10.0   .     S
V6     V12    10.0   .     S
V6     V13    10.0   .     S
V6     V10    10.0   .     S
V6     V14    10.0   .     S
V6     V18    10.0   .     S
V7     V9    10.0   1_655     S
V7     V16    10.0   1_545     S
V7     V11    10.0   .     S
V7     V15    10.0   .     S
V7     V19    10.0   .     S
V8     V10    10.0   1_655     S
V8     V15    10.0   .     S
V8     V12    10.0   .     S
V8     V16    10.0   .     S
V8     V20    10.0   .     S
V9     V2    10.0   1_545     S
V9     V7    10.0   1_455     S
V9     V16    10.0   1_445     S
V9     V25    10.0   1_556     S
V10     V8    10.0   1_455     S
V10     V15    10.0   1_455     S
V10     V26    10.0   1_556     S
V11     V4    10.0   1_545     S
V11     V14    10.0   1_545     S
V11     V27    10.0   1_556     S
V12     V13    10.0   .     S
V12     V28    10.0   1_556     S
V13     V29    10.0   1_556     S
V14     V5    10.0   1_565     S
V14     V11    10.0   1_565     S
V14     V30    10.0   1_556     S
V15     V1    10.0   1_655     S
V15     V10    10.0   1_655     S
V15     V31    10.0   1_556     S
V16     V2    10.0   1_655     S
V16     V7    10.0   1_565     S
V16     V9    10.0   1_665     S
V16     V32    10.0   1_556     S
V17     V21    10.0   .     S
V17     V25    10.0   .     S
V17     V29    10.0   .     S
V17     V30    10.0   1_545     S
V17     V27    10.0   .     S
V18     V22    10.0   .     S
V18     V26    10.0   .     S
V18     V30    10.0   .     S
V18     V29    10.0   .     S
V18     V28    10.0   .     S
V19     V23    10.0   .     S
V19     V27    10.0   .     S
V19     V31    10.0   .     S
V19     V32    10.0   1_545     S
V19     V25    10.0   1_655     S
V20     V24    10.0   .     S
V20     V28    10.0   .     S
V20     V32    10.0   .     S
V20     V31    10.0   .     S
V20     V26    10.0   1_655     S
V21     V25    10.0   .     S
V21     V29    10.0   .     S
V21     V26    10.0   .     S
V21     V31    10.0   1_455     S
V22     V26    10.0   .     S
V22     V30    10.0   .     S
V22     V25    10.0   1_565     S
V22     V32    10.0   1_455     S
V23     V27    10.0   .     S
V23     V31    10.0   .     S
V23     V28    10.0   .     S
V23     V29    10.0   .     S
V24     V28    10.0   .     S
V24     V32    10.0   .     S
V24     V27    10.0   1_565     S
V24     V30    10.0   .     S
V25     V19    10.0   1_455     S
V25     V32    10.0   1_445     S
V25     V22    10.0   1_545     S
V25     V9    10.0   1_554     S
V26     V20    10.0   1_455     S
V26     V31    10.0   1_455     S
V26     V10    10.0   1_554     S
V27     V30    10.0   1_545     S
V27     V24    10.0   1_545     S
V27     V11    10.0   1_554     S
V28     V29    10.0   .     S
V28     V12    10.0   1_554     S
V29     V13    10.0   1_554     S
V30     V17    10.0   1_565     S
V30     V27    10.0   1_565     S
V30     V14    10.0   1_554     S
V31     V26    10.0   1_655     S
V31     V21    10.0   1_655     S
V31     V15    10.0   1_554     S
V32     V19    10.0   1_565     S
V32     V25    10.0   1_665     S
V32     V22    10.0   1_655     S
V32     V16    10.0   1_554     S
