data_wgw
_audit_creation_date              2019-12-31
_audit_creation_method            'Pymatgen'
_symmetry_space_group_name_H-M    'P1'
_symmetry_Int_Tables_number       1
loop_
_symmetry_equiv_pos_as_xyz
  x,y,z
_cell_length_a                    35.7768
_cell_length_b                    35.7768
_cell_length_c                    27.4078
_cell_angle_alpha                 90.0
_cell_angle_beta                 90.0
_cell_angle_gamma                 90.0
loop_
_atom_site_label
_atom_site_type_symbol
_atom_site_fract_x
_atom_site_fract_y
_atom_site_fract_z
V1     V     0.0262   0.0262   0.6759
V2     V     0.0262   0.5262   0.6759
V3     V     0.5262   0.0262   0.6759
V4     V     0.5262   0.5262   0.6759
V5     V     0.2238   0.2238   0.6759
V6     V     0.2238   0.7238   0.6759
V7     V     0.7238   0.2238   0.6759
V8     V     0.7238   0.7238   0.6759
V9     V     0.2762   0.2762   0.3241
V10     V     0.2762   0.7762   0.3241
V11     V     0.7762   0.2762   0.3241
V12     V     0.7762   0.7762   0.3241
V13     V     0.4738   0.4738   0.3241
V14     V     0.4738   0.9738   0.3241
V15     V     0.9738   0.4738   0.3241
V16     V     0.9738   0.9738   0.3241
V17     V     0.4738   0.2762   0.8241
V18     V     0.4738   0.7762   0.8241
V19     V     0.9738   0.2762   0.8241
V20     V     0.9738   0.7762   0.8241
V21     V     0.2762   0.4738   0.8241
V22     V     0.2762   0.9738   0.8241
V23     V     0.7762   0.4738   0.8241
V24     V     0.7762   0.9738   0.8241
V25     V     0.0262   0.2238   0.1759
V26     V     0.0262   0.7238   0.1759
V27     V     0.5262   0.2238   0.1759
V28     V     0.5262   0.7238   0.1759
V29     V     0.2238   0.0262   0.1759
V30     V     0.2238   0.5262   0.1759
V31     V     0.7238   0.0262   0.1759
V32     V     0.7238   0.5262   0.1759
loop_
_geom_bond_atom_site_label_1
_geom_bond_atom_site_label_2
_geom_bond_distance
_geom_bond_site_symmetry_2
_ccdc_geom_bond_type
V1     V20    10.0   1_445     S
V1     V24    10.0   1_445     S
V1     V22    10.0   1_545     S
V1     V19    10.0   1_455     S
V1     V5    10.0   .     S
V1     V16    10.0   1_445     S
V2     V19    10.0   1_455     S
V2     V23    10.0   1_455     S
V2     V21    10.0   .     S
V2     V20    10.0   1_455     S
V2     V6    10.0   .     S
V2     V15    10.0   1_455     S
V3     V18    10.0   1_545     S
V3     V22    10.0   1_545     S
V3     V24    10.0   1_545     S
V3     V17    10.0   .     S
V3     V7    10.0   .     S
V3     V14    10.0   1_545     S
V4     V17    10.0   .     S
V4     V21    10.0   .     S
V4     V23    10.0   .     S
V4     V18    10.0   .     S
V4     V8    10.0   .     S
V4     V13    10.0   .     S
V5     V21    10.0   .     S
V5     V17    10.0   .     S
V5     V22    10.0   1_545     S
V5     V19    10.0   1_455     S
V5     V9    10.0   .     S
V6     V22    10.0   .     S
V6     V18    10.0   .     S
V6     V21    10.0   .     S
V6     V20    10.0   1_455     S
V6     V10    10.0   .     S
V7     V23    10.0   .     S
V7     V19    10.0   .     S
V7     V24    10.0   1_545     S
V7     V17    10.0   .     S
V7     V11    10.0   .     S
V8     V24    10.0   .     S
V8     V20    10.0   .     S
V8     V23    10.0   .     S
V8     V18    10.0   .     S
V8     V12    10.0   .     S
V9     V25    10.0   .     S
V9     V29    10.0   .     S
V9     V30    10.0   .     S
V9     V27    10.0   .     S
V9     V13    10.0   .     S
V10     V26    10.0   .     S
V10     V30    10.0   .     S
V10     V29    10.0   1_565     S
V10     V28    10.0   .     S
V10     V14    10.0   .     S
V11     V27    10.0   .     S
V11     V31    10.0   .     S
V11     V32    10.0   .     S
V11     V25    10.0   1_655     S
V11     V15    10.0   .     S
V12     V28    10.0   .     S
V12     V32    10.0   .     S
V12     V31    10.0   1_565     S
V12     V26    10.0   1_655     S
V12     V16    10.0   .     S
V13     V30    10.0   .     S
V13     V27    10.0   .     S
V13     V32    10.0   .     S
V13     V28    10.0   .     S
V14     V29    10.0   1_565     S
V14     V28    10.0   .     S
V14     V3    10.0   1_565     S
V14     V31    10.0   1_565     S
V14     V27    10.0   1_565     S
V15     V32    10.0   .     S
V15     V25    10.0   1_655     S
V15     V2    10.0   1_655     S
V15     V30    10.0   1_655     S
V15     V26    10.0   1_655     S
V16     V31    10.0   1_565     S
V16     V26    10.0   1_655     S
V16     V1    10.0   1_665     S
V16     V29    10.0   1_665     S
V16     V25    10.0   1_665     S
V17     V21    10.0   .     S
V17     V27    10.0   1_556     S
V18     V3    10.0   1_565     S
V18     V22    10.0   .     S
V18     V28    10.0   1_556     S
V19     V2    10.0   1_655     S
V19     V1    10.0   1_655     S
V19     V5    10.0   1_655     S
V19     V23    10.0   .     S
V19     V25    10.0   1_656     S
V20     V1    10.0   1_665     S
V20     V2    10.0   1_655     S
V20     V6    10.0   1_655     S
V20     V24    10.0   .     S
V20     V26    10.0   1_656     S
V21     V30    10.0   1_556     S
V22     V3    10.0   1_565     S
V22     V5    10.0   1_565     S
V22     V1    10.0   1_565     S
V22     V29    10.0   1_566     S
V23     V2    10.0   1_655     S
V23     V32    10.0   1_556     S
V24     V1    10.0   1_665     S
V24     V7    10.0   1_565     S
V24     V3    10.0   1_565     S
V24     V31    10.0   1_566     S
V25     V11    10.0   1_455     S
V25     V15    10.0   1_455     S
V25     V16    10.0   1_445     S
V25     V29    10.0   .     S
V25     V19    10.0   1_454     S
V26     V12    10.0   1_455     S
V26     V16    10.0   1_455     S
V26     V15    10.0   1_455     S
V26     V30    10.0   .     S
V26     V20    10.0   1_454     S
V27     V14    10.0   1_545     S
V27     V31    10.0   .     S
V27     V17    10.0   1_554     S
V28     V32    10.0   .     S
V28     V18    10.0   1_554     S
V29     V14    10.0   1_545     S
V29     V10    10.0   1_545     S
V29     V16    10.0   1_445     S
V29     V22    10.0   1_544     S
V30     V15    10.0   1_455     S
V30     V21    10.0   1_554     S
V31     V16    10.0   1_545     S
V31     V12    10.0   1_545     S
V31     V14    10.0   1_545     S
V31     V24    10.0   1_544     S
V32     V23    10.0   1_554     S
