data_wgy
_audit_creation_date              2019-12-31
_audit_creation_method            'Pymatgen'
_symmetry_space_group_name_H-M    'P1'
_symmetry_Int_Tables_number       1
loop_
_symmetry_equiv_pos_as_xyz
  x,y,z
_cell_length_a                    46.3898
_cell_length_b                    46.3898
_cell_length_c                    29.9997
_cell_angle_alpha                 90.0
_cell_angle_beta                 90.0
_cell_angle_gamma                 90.0
loop_
_atom_site_label
_atom_site_type_symbol
_atom_site_fract_x
_atom_site_fract_y
_atom_site_fract_z
V1     V     0.3922   0.2398   0.0
V2     V     0.3922   0.2398   0.3333
V3     V     0.3922   0.2398   0.6667
V4     V     0.6078   0.2398   0.0
V5     V     0.6078   0.2398   0.3333
V6     V     0.6078   0.2398   0.6667
V7     V     0.2398   0.3922   0.0
V8     V     0.2398   0.3922   0.3333
V9     V     0.2398   0.3922   0.6667
V10     V     0.2398   0.6078   0.0
V11     V     0.2398   0.6078   0.3333
V12     V     0.2398   0.6078   0.6667
V13     V     0.7602   0.6078   0.0
V14     V     0.7602   0.6078   0.3333
V15     V     0.7602   0.6078   0.6667
V16     V     0.7602   0.3922   0.0
V17     V     0.7602   0.3922   0.3333
V18     V     0.7602   0.3922   0.6667
V19     V     0.3922   0.7602   0.0
V20     V     0.3922   0.7602   0.3333
V21     V     0.3922   0.7602   0.6667
V22     V     0.6078   0.7602   0.0
V23     V     0.6078   0.7602   0.3333
V24     V     0.6078   0.7602   0.6667
V25     V     0.8922   0.2602   0.1667
V26     V     0.8922   0.2602   0.5
V27     V     0.8922   0.2602   0.8333
V28     V     0.1078   0.2602   0.1667
V29     V     0.1078   0.2602   0.5
V30     V     0.1078   0.2602   0.8333
V31     V     0.2602   0.8922   0.1667
V32     V     0.2602   0.8922   0.5
V33     V     0.2602   0.8922   0.8333
V34     V     0.2602   0.1078   0.1667
V35     V     0.2602   0.1078   0.5
V36     V     0.2602   0.1078   0.8333
V37     V     0.8922   0.7398   0.1667
V38     V     0.8922   0.7398   0.5
V39     V     0.8922   0.7398   0.8333
V40     V     0.1078   0.7398   0.1667
V41     V     0.1078   0.7398   0.5
V42     V     0.1078   0.7398   0.8333
V43     V     0.7398   0.8922   0.1667
V44     V     0.7398   0.8922   0.5
V45     V     0.7398   0.8922   0.8333
V46     V     0.7398   0.1078   0.1667
V47     V     0.7398   0.1078   0.5
V48     V     0.7398   0.1078   0.8333
loop_
_geom_bond_atom_site_label_1
_geom_bond_atom_site_label_2
_geom_bond_distance
_geom_bond_site_symmetry_2
_ccdc_geom_bond_type
V1     V4    10.0   .     S
V1     V2    10.0   .     S
V1     V3    10.0   1_554     S
V1     V7    10.0   .     S
V1     V36    10.0   1_554     S
V1     V34    10.0   .     S
V2     V5    10.0   .     S
V2     V3    10.0   .     S
V2     V8    10.0   .     S
V2     V34    10.0   .     S
V2     V35    10.0   .     S
V3     V6    10.0   .     S
V3     V1    10.0   1_556     S
V3     V9    10.0   .     S
V3     V35    10.0   .     S
V3     V36    10.0   .     S
V4     V5    10.0   .     S
V4     V6    10.0   1_554     S
V4     V16    10.0   .     S
V4     V46    10.0   .     S
V4     V48    10.0   1_554     S
V5     V6    10.0   .     S
V5     V17    10.0   .     S
V5     V47    10.0   .     S
V5     V46    10.0   .     S
V6     V4    10.0   1_556     S
V6     V18    10.0   .     S
V6     V48    10.0   .     S
V6     V47    10.0   .     S
V7     V10    10.0   .     S
V7     V8    10.0   .     S
V7     V9    10.0   1_554     S
V7     V28    10.0   .     S
V7     V30    10.0   1_554     S
V8     V11    10.0   .     S
V8     V9    10.0   .     S
V8     V29    10.0   .     S
V8     V28    10.0   .     S
V9     V12    10.0   .     S
V9     V7    10.0   1_556     S
V9     V30    10.0   .     S
V9     V29    10.0   .     S
V10     V11    10.0   .     S
V10     V12    10.0   1_554     S
V10     V19    10.0   .     S
V10     V42    10.0   1_554     S
V10     V40    10.0   .     S
V11     V12    10.0   .     S
V11     V20    10.0   .     S
V11     V40    10.0   .     S
V11     V41    10.0   .     S
V12     V10    10.0   1_556     S
V12     V21    10.0   .     S
V12     V41    10.0   .     S
V12     V42    10.0   .     S
V13     V37    10.0   .     S
V13     V39    10.0   1_554     S
V13     V16    10.0   .     S
V13     V14    10.0   .     S
V13     V15    10.0   1_554     S
V13     V22    10.0   .     S
V14     V38    10.0   .     S
V14     V37    10.0   .     S
V14     V17    10.0   .     S
V14     V15    10.0   .     S
V14     V23    10.0   .     S
V15     V39    10.0   .     S
V15     V38    10.0   .     S
V15     V18    10.0   .     S
V15     V13    10.0   1_556     S
V15     V24    10.0   .     S
V16     V27    10.0   1_554     S
V16     V25    10.0   .     S
V16     V17    10.0   .     S
V16     V18    10.0   1_554     S
V17     V25    10.0   .     S
V17     V26    10.0   .     S
V17     V18    10.0   .     S
V18     V26    10.0   .     S
V18     V27    10.0   .     S
V18     V16    10.0   1_556     S
V19     V31    10.0   .     S
V19     V33    10.0   1_554     S
V19     V22    10.0   .     S
V19     V20    10.0   .     S
V19     V21    10.0   1_554     S
V20     V32    10.0   .     S
V20     V31    10.0   .     S
V20     V23    10.0   .     S
V20     V21    10.0   .     S
V21     V33    10.0   .     S
V21     V32    10.0   .     S
V21     V24    10.0   .     S
V21     V19    10.0   1_556     S
V22     V45    10.0   1_554     S
V22     V43    10.0   .     S
V22     V23    10.0   .     S
V22     V24    10.0   1_554     S
V23     V43    10.0   .     S
V23     V44    10.0   .     S
V23     V24    10.0   .     S
V24     V44    10.0   .     S
V24     V45    10.0   .     S
V24     V22    10.0   1_556     S
V25     V28    10.0   1_655     S
V25     V27    10.0   1_554     S
V25     V26    10.0   .     S
V25     V46    10.0   .     S
V26     V29    10.0   1_655     S
V26     V27    10.0   .     S
V26     V47    10.0   .     S
V27     V16    10.0   1_556     S
V27     V30    10.0   1_655     S
V27     V25    10.0   1_556     S
V27     V48    10.0   .     S
V28     V25    10.0   1_455     S
V28     V30    10.0   1_554     S
V28     V29    10.0   .     S
V28     V34    10.0   .     S
V29     V26    10.0   1_455     S
V29     V30    10.0   .     S
V29     V35    10.0   .     S
V30     V7    10.0   1_556     S
V30     V27    10.0   1_455     S
V30     V28    10.0   1_556     S
V30     V36    10.0   .     S
V31     V34    10.0   1_565     S
V31     V33    10.0   1_554     S
V31     V32    10.0   .     S
V31     V40    10.0   .     S
V32     V35    10.0   1_565     S
V32     V33    10.0   .     S
V32     V41    10.0   .     S
V33     V19    10.0   1_556     S
V33     V36    10.0   1_565     S
V33     V31    10.0   1_556     S
V33     V42    10.0   .     S
V34     V31    10.0   1_545     S
V34     V36    10.0   1_554     S
V34     V35    10.0   .     S
V35     V32    10.0   1_545     S
V35     V36    10.0   .     S
V36     V1    10.0   1_556     S
V36     V33    10.0   1_545     S
V36     V34    10.0   1_556     S
V37     V40    10.0   1_655     S
V37     V39    10.0   1_554     S
V37     V38    10.0   .     S
V37     V43    10.0   .     S
V38     V41    10.0   1_655     S
V38     V39    10.0   .     S
V38     V44    10.0   .     S
V39     V13    10.0   1_556     S
V39     V42    10.0   1_655     S
V39     V37    10.0   1_556     S
V39     V45    10.0   .     S
V40     V37    10.0   1_455     S
V40     V42    10.0   1_554     S
V40     V41    10.0   .     S
V41     V38    10.0   1_455     S
V41     V42    10.0   .     S
V42     V10    10.0   1_556     S
V42     V39    10.0   1_455     S
V42     V40    10.0   1_556     S
V43     V46    10.0   1_565     S
V43     V45    10.0   1_554     S
V43     V44    10.0   .     S
V44     V47    10.0   1_565     S
V44     V45    10.0   .     S
V45     V22    10.0   1_556     S
V45     V48    10.0   1_565     S
V45     V43    10.0   1_556     S
V46     V43    10.0   1_545     S
V46     V48    10.0   1_554     S
V46     V47    10.0   .     S
V47     V44    10.0   1_545     S
V47     V48    10.0   .     S
V48     V4    10.0   1_556     S
V48     V45    10.0   1_545     S
V48     V46    10.0   1_556     S
