data_wha
_audit_creation_date              2019-12-31
_audit_creation_method            'Pymatgen'
_symmetry_space_group_name_H-M    'P1'
_symmetry_Int_Tables_number       1
loop_
_symmetry_equiv_pos_as_xyz
  x,y,z
_cell_length_a                    38.5402
_cell_length_b                    38.5402
_cell_length_c                    37.418
_cell_angle_alpha                 90.0
_cell_angle_beta                 90.0
_cell_angle_gamma                 90.0
loop_
_atom_site_label
_atom_site_type_symbol
_atom_site_fract_x
_atom_site_fract_y
_atom_site_fract_z
V1     V     0.3657   0.1806   0.3405
V2     V     0.3657   0.1806   0.8405
V3     V     0.3657   0.6806   0.3405
V4     V     0.3657   0.6806   0.8405
V5     V     0.8657   0.1806   0.3405
V6     V     0.8657   0.1806   0.8405
V7     V     0.8657   0.6806   0.3405
V8     V     0.8657   0.6806   0.8405
V9     V     0.3843   0.4306   0.4095
V10     V     0.3843   0.4306   0.9095
V11     V     0.3843   0.9306   0.4095
V12     V     0.3843   0.9306   0.9095
V13     V     0.8843   0.4306   0.4095
V14     V     0.8843   0.4306   0.9095
V15     V     0.8843   0.9306   0.4095
V16     V     0.8843   0.9306   0.9095
V17     V     0.0694   0.3843   0.0905
V18     V     0.0694   0.3843   0.5905
V19     V     0.0694   0.8843   0.0905
V20     V     0.0694   0.8843   0.5905
V21     V     0.5694   0.3843   0.0905
V22     V     0.5694   0.3843   0.5905
V23     V     0.5694   0.8843   0.0905
V24     V     0.5694   0.8843   0.5905
V25     V     0.3194   0.3657   0.1595
V26     V     0.3194   0.3657   0.6595
V27     V     0.3194   0.8657   0.1595
V28     V     0.3194   0.8657   0.6595
V29     V     0.8194   0.3657   0.1595
V30     V     0.8194   0.3657   0.6595
V31     V     0.8194   0.8657   0.1595
V32     V     0.8194   0.8657   0.6595
V33     V     0.1157   0.0694   0.4095
V34     V     0.1157   0.0694   0.9095
V35     V     0.1157   0.5694   0.4095
V36     V     0.1157   0.5694   0.9095
V37     V     0.6157   0.0694   0.4095
V38     V     0.6157   0.0694   0.9095
V39     V     0.6157   0.5694   0.4095
V40     V     0.6157   0.5694   0.9095
V41     V     0.1343   0.3194   0.3405
V42     V     0.1343   0.3194   0.8405
V43     V     0.1343   0.8194   0.3405
V44     V     0.1343   0.8194   0.8405
V45     V     0.6343   0.3194   0.3405
V46     V     0.6343   0.3194   0.8405
V47     V     0.6343   0.8194   0.3405
V48     V     0.6343   0.8194   0.8405
V49     V     0.1806   0.1343   0.1595
V50     V     0.1806   0.1343   0.6595
V51     V     0.1806   0.6343   0.1595
V52     V     0.1806   0.6343   0.6595
V53     V     0.6806   0.1343   0.1595
V54     V     0.6806   0.1343   0.6595
V55     V     0.6806   0.6343   0.1595
V56     V     0.6806   0.6343   0.6595
V57     V     0.4306   0.1157   0.0905
V58     V     0.4306   0.1157   0.5905
V59     V     0.4306   0.6157   0.0905
V60     V     0.4306   0.6157   0.5905
V61     V     0.9306   0.1157   0.0905
V62     V     0.9306   0.1157   0.5905
V63     V     0.9306   0.6157   0.0905
V64     V     0.9306   0.6157   0.5905
loop_
_geom_bond_atom_site_label_1
_geom_bond_atom_site_label_2
_geom_bond_distance
_geom_bond_site_symmetry_2
_ccdc_geom_bond_type
V1     V57    10.0   .     S
V1     V49    10.0   .     S
V1     V25    10.0   .     S
V1     V58    10.0   .     S
V1     V11    10.0   1_545     S
V1     V9    10.0   .     S
V2     V58    10.0   .     S
V2     V50    10.0   .     S
V2     V26    10.0   .     S
V2     V57    10.0   1_556     S
V2     V12    10.0   1_545     S
V2     V10    10.0   .     S
V3     V59    10.0   .     S
V3     V51    10.0   .     S
V3     V27    10.0   .     S
V3     V60    10.0   .     S
V3     V9    10.0   .     S
V3     V11    10.0   .     S
V4     V60    10.0   .     S
V4     V52    10.0   .     S
V4     V28    10.0   .     S
V4     V59    10.0   1_556     S
V4     V10    10.0   .     S
V4     V12    10.0   .     S
V5     V61    10.0   .     S
V5     V53    10.0   .     S
V5     V29    10.0   .     S
V5     V62    10.0   .     S
V5     V15    10.0   1_545     S
V5     V13    10.0   .     S
V6     V62    10.0   .     S
V6     V54    10.0   .     S
V6     V30    10.0   .     S
V6     V61    10.0   1_556     S
V6     V16    10.0   1_545     S
V6     V14    10.0   .     S
V7     V63    10.0   .     S
V7     V55    10.0   .     S
V7     V31    10.0   .     S
V7     V64    10.0   .     S
V7     V13    10.0   .     S
V7     V15    10.0   .     S
V8     V64    10.0   .     S
V8     V56    10.0   .     S
V8     V32    10.0   .     S
V8     V63    10.0   1_556     S
V8     V14    10.0   .     S
V8     V16    10.0   .     S
V9     V25    10.0   .     S
V9     V60    10.0   .     S
V9     V26    10.0   .     S
V9     V22    10.0   .     S
V10     V26    10.0   .     S
V10     V59    10.0   1_556     S
V10     V25    10.0   1_556     S
V10     V21    10.0   1_556     S
V11     V27    10.0   .     S
V11     V58    10.0   1_565     S
V11     V1    10.0   1_565     S
V11     V28    10.0   .     S
V11     V24    10.0   .     S
V12     V28    10.0   .     S
V12     V57    10.0   1_566     S
V12     V2    10.0   1_565     S
V12     V27    10.0   1_556     S
V12     V23    10.0   1_556     S
V13     V29    10.0   .     S
V13     V64    10.0   .     S
V13     V30    10.0   .     S
V13     V18    10.0   1_655     S
V14     V30    10.0   .     S
V14     V63    10.0   1_556     S
V14     V29    10.0   1_556     S
V14     V17    10.0   1_656     S
V15     V31    10.0   .     S
V15     V62    10.0   1_565     S
V15     V5    10.0   1_565     S
V15     V32    10.0   .     S
V15     V20    10.0   1_655     S
V16     V32    10.0   .     S
V16     V61    10.0   1_566     S
V16     V6    10.0   1_565     S
V16     V31    10.0   1_556     S
V16     V19    10.0   1_656     S
V17     V41    10.0   .     S
V17     V14    10.0   1_454     S
V17     V25    10.0   .     S
V17     V29    10.0   1_455     S
V17     V42    10.0   1_554     S
V17     V36    10.0   1_554     S
V18     V42    10.0   .     S
V18     V13    10.0   1_455     S
V18     V26    10.0   .     S
V18     V30    10.0   1_455     S
V18     V41    10.0   .     S
V18     V35    10.0   .     S
V19     V43    10.0   .     S
V19     V16    10.0   1_454     S
V19     V27    10.0   .     S
V19     V31    10.0   1_455     S
V19     V44    10.0   1_554     S
V19     V34    10.0   1_564     S
V20     V44    10.0   .     S
V20     V15    10.0   1_455     S
V20     V28    10.0   .     S
V20     V32    10.0   1_455     S
V20     V43    10.0   .     S
V20     V33    10.0   1_565     S
V21     V45    10.0   .     S
V21     V10    10.0   1_554     S
V21     V29    10.0   .     S
V21     V25    10.0   .     S
V21     V46    10.0   1_554     S
V21     V40    10.0   1_554     S
V22     V46    10.0   .     S
V22     V30    10.0   .     S
V22     V26    10.0   .     S
V22     V45    10.0   .     S
V22     V39    10.0   .     S
V23     V47    10.0   .     S
V23     V12    10.0   1_554     S
V23     V31    10.0   .     S
V23     V27    10.0   .     S
V23     V48    10.0   1_554     S
V23     V38    10.0   1_564     S
V24     V48    10.0   .     S
V24     V32    10.0   .     S
V24     V28    10.0   .     S
V24     V47    10.0   .     S
V24     V37    10.0   1_565     S
V25     V41    10.0   .     S
V25     V10    10.0   1_554     S
V26     V42    10.0   .     S
V27     V43    10.0   .     S
V27     V12    10.0   1_554     S
V28     V44    10.0   .     S
V29     V45    10.0   .     S
V29     V14    10.0   1_554     S
V29     V17    10.0   1_655     S
V30     V46    10.0   .     S
V30     V18    10.0   1_655     S
V31     V47    10.0   .     S
V31     V16    10.0   1_554     S
V31     V19    10.0   1_655     S
V32     V48    10.0   .     S
V32     V20    10.0   1_655     S
V33     V49    10.0   .     S
V33     V20    10.0   1_545     S
V33     V41    10.0   .     S
V33     V43    10.0   1_545     S
V33     V50    10.0   .     S
V33     V62    10.0   1_455     S
V34     V50    10.0   .     S
V34     V19    10.0   1_546     S
V34     V42    10.0   .     S
V34     V44    10.0   1_545     S
V34     V49    10.0   1_556     S
V34     V61    10.0   1_456     S
V35     V51    10.0   .     S
V35     V43    10.0   .     S
V35     V41    10.0   .     S
V35     V52    10.0   .     S
V35     V64    10.0   1_455     S
V36     V52    10.0   .     S
V36     V17    10.0   1_556     S
V36     V44    10.0   .     S
V36     V42    10.0   .     S
V36     V51    10.0   1_556     S
V36     V63    10.0   1_456     S
V37     V53    10.0   .     S
V37     V24    10.0   1_545     S
V37     V45    10.0   .     S
V37     V47    10.0   1_545     S
V37     V54    10.0   .     S
V37     V58    10.0   .     S
V38     V54    10.0   .     S
V38     V23    10.0   1_546     S
V38     V46    10.0   .     S
V38     V48    10.0   1_545     S
V38     V53    10.0   1_556     S
V38     V57    10.0   1_556     S
V39     V55    10.0   .     S
V39     V47    10.0   .     S
V39     V45    10.0   .     S
V39     V56    10.0   .     S
V39     V60    10.0   .     S
V40     V56    10.0   .     S
V40     V21    10.0   1_556     S
V40     V48    10.0   .     S
V40     V46    10.0   .     S
V40     V55    10.0   1_556     S
V40     V59    10.0   1_556     S
V41     V49    10.0   .     S
V42     V50    10.0   .     S
V42     V17    10.0   1_556     S
V43     V51    10.0   .     S
V43     V33    10.0   1_565     S
V44     V52    10.0   .     S
V44     V19    10.0   1_556     S
V44     V34    10.0   1_565     S
V45     V53    10.0   .     S
V46     V54    10.0   .     S
V46     V21    10.0   1_556     S
V47     V55    10.0   .     S
V47     V37    10.0   1_565     S
V48     V56    10.0   .     S
V48     V23    10.0   1_556     S
V48     V38    10.0   1_565     S
V49     V61    10.0   1_455     S
V49     V57    10.0   .     S
V49     V34    10.0   1_554     S
V50     V62    10.0   1_455     S
V50     V58    10.0   .     S
V51     V63    10.0   1_455     S
V51     V59    10.0   .     S
V51     V36    10.0   1_554     S
V52     V64    10.0   1_455     S
V52     V60    10.0   .     S
V53     V57    10.0   .     S
V53     V61    10.0   .     S
V53     V38    10.0   1_554     S
V54     V58    10.0   .     S
V54     V62    10.0   .     S
V55     V59    10.0   .     S
V55     V63    10.0   .     S
V55     V40    10.0   1_554     S
V56     V60    10.0   .     S
V56     V64    10.0   .     S
V57     V2    10.0   1_554     S
V57     V12    10.0   1_544     S
V57     V38    10.0   1_554     S
V58     V11    10.0   1_545     S
V59     V4    10.0   1_554     S
V59     V10    10.0   1_554     S
V59     V40    10.0   1_554     S
V61     V6    10.0   1_554     S
V61     V16    10.0   1_544     S
V61     V49    10.0   1_655     S
V61     V34    10.0   1_654     S
V62     V15    10.0   1_545     S
V62     V50    10.0   1_655     S
V62     V33    10.0   1_655     S
V63     V8    10.0   1_554     S
V63     V14    10.0   1_554     S
V63     V51    10.0   1_655     S
V63     V36    10.0   1_654     S
V64     V52    10.0   1_655     S
V64     V35    10.0   1_655     S
