data_whb
_audit_creation_date              2019-12-31
_audit_creation_method            'Pymatgen'
_symmetry_space_group_name_H-M    'P1'
_symmetry_Int_Tables_number       1
loop_
_symmetry_equiv_pos_as_xyz
  x,y,z
_cell_length_a                    39.9996
_cell_length_b                    39.9996
_cell_length_c                    28.551
_cell_angle_alpha                 90.0
_cell_angle_beta                 90.0
_cell_angle_gamma                 90.0
loop_
_atom_site_label
_atom_site_type_symbol
_atom_site_fract_x
_atom_site_fract_y
_atom_site_fract_z
V1     V     0.0   0.375   0.4988
V2     V     0.0   0.375   0.9988
V3     V     0.0   0.875   0.4988
V4     V     0.0   0.875   0.9988
V5     V     0.5   0.375   0.4988
V6     V     0.5   0.375   0.9988
V7     V     0.5   0.875   0.4988
V8     V     0.5   0.875   0.9988
V9     V     0.25   0.375   0.4988
V10     V     0.25   0.375   0.9988
V11     V     0.25   0.875   0.4988
V12     V     0.25   0.875   0.9988
V13     V     0.75   0.375   0.4988
V14     V     0.75   0.375   0.9988
V15     V     0.75   0.875   0.4988
V16     V     0.75   0.875   0.9988
V17     V     0.125   0.0   0.2512
V18     V     0.125   0.0   0.7512
V19     V     0.125   0.5   0.2512
V20     V     0.125   0.5   0.7512
V21     V     0.625   0.0   0.2512
V22     V     0.625   0.0   0.7512
V23     V     0.625   0.5   0.2512
V24     V     0.625   0.5   0.7512
V25     V     0.125   0.25   0.2512
V26     V     0.125   0.25   0.7512
V27     V     0.125   0.75   0.2512
V28     V     0.125   0.75   0.7512
V29     V     0.625   0.25   0.2512
V30     V     0.625   0.25   0.7512
V31     V     0.625   0.75   0.2512
V32     V     0.625   0.75   0.7512
V33     V     0.375   0.25   0.2488
V34     V     0.375   0.25   0.7488
V35     V     0.375   0.75   0.2488
V36     V     0.375   0.75   0.7488
V37     V     0.875   0.25   0.2488
V38     V     0.875   0.25   0.7488
V39     V     0.875   0.75   0.2488
V40     V     0.875   0.75   0.7488
V41     V     0.375   0.0   0.2488
V42     V     0.375   0.0   0.7488
V43     V     0.375   0.5   0.2488
V44     V     0.375   0.5   0.7488
V45     V     0.875   0.0   0.2488
V46     V     0.875   0.0   0.7488
V47     V     0.875   0.5   0.2488
V48     V     0.875   0.5   0.7488
V49     V     0.0   0.125   0.0012
V50     V     0.0   0.125   0.5012
V51     V     0.0   0.625   0.0012
V52     V     0.0   0.625   0.5012
V53     V     0.5   0.125   0.0012
V54     V     0.5   0.125   0.5012
V55     V     0.5   0.625   0.0012
V56     V     0.5   0.625   0.5012
V57     V     0.25   0.125   0.0012
V58     V     0.25   0.125   0.5012
V59     V     0.25   0.625   0.0012
V60     V     0.25   0.625   0.5012
V61     V     0.75   0.125   0.0012
V62     V     0.75   0.125   0.5012
V63     V     0.75   0.625   0.0012
V64     V     0.75   0.625   0.5012
loop_
_geom_bond_atom_site_label_1
_geom_bond_atom_site_label_2
_geom_bond_distance
_geom_bond_site_symmetry_2
_ccdc_geom_bond_type
V1     V9    10.0   .     S
V1     V13    10.0   1_455     S
V1     V19    10.0   .     S
V1     V25    10.0   .     S
V1     V52    10.0   .     S
V1     V50    10.0   .     S
V2     V10    10.0   .     S
V2     V14    10.0   1_455     S
V2     V20    10.0   .     S
V2     V26    10.0   .     S
V2     V51    10.0   1_556     S
V2     V49    10.0   1_556     S
V3     V11    10.0   .     S
V3     V15    10.0   1_455     S
V3     V17    10.0   1_565     S
V3     V27    10.0   .     S
V3     V50    10.0   1_565     S
V3     V52    10.0   .     S
V4     V12    10.0   .     S
V4     V16    10.0   1_455     S
V4     V18    10.0   1_565     S
V4     V28    10.0   .     S
V4     V49    10.0   1_566     S
V4     V51    10.0   1_556     S
V5     V13    10.0   .     S
V5     V9    10.0   .     S
V5     V23    10.0   .     S
V5     V29    10.0   .     S
V5     V56    10.0   .     S
V5     V54    10.0   .     S
V6     V14    10.0   .     S
V6     V10    10.0   .     S
V6     V24    10.0   .     S
V6     V30    10.0   .     S
V6     V55    10.0   1_556     S
V6     V53    10.0   1_556     S
V7     V15    10.0   .     S
V7     V11    10.0   .     S
V7     V21    10.0   1_565     S
V7     V31    10.0   .     S
V7     V54    10.0   1_565     S
V7     V56    10.0   .     S
V8     V16    10.0   .     S
V8     V12    10.0   .     S
V8     V22    10.0   1_565     S
V8     V32    10.0   .     S
V8     V53    10.0   1_566     S
V8     V55    10.0   1_556     S
V9     V19    10.0   .     S
V9     V25    10.0   .     S
V9     V58    10.0   .     S
V9     V60    10.0   .     S
V10     V20    10.0   .     S
V10     V26    10.0   .     S
V10     V57    10.0   1_556     S
V10     V59    10.0   1_556     S
V11     V17    10.0   1_565     S
V11     V27    10.0   .     S
V11     V60    10.0   .     S
V11     V58    10.0   1_565     S
V12     V18    10.0   1_565     S
V12     V28    10.0   .     S
V12     V59    10.0   1_556     S
V12     V57    10.0   1_566     S
V13     V1    10.0   1_655     S
V13     V23    10.0   .     S
V13     V29    10.0   .     S
V13     V62    10.0   .     S
V13     V64    10.0   .     S
V14     V2    10.0   1_655     S
V14     V24    10.0   .     S
V14     V30    10.0   .     S
V14     V61    10.0   1_556     S
V14     V63    10.0   1_556     S
V15     V3    10.0   1_655     S
V15     V21    10.0   1_565     S
V15     V31    10.0   .     S
V15     V64    10.0   .     S
V15     V62    10.0   1_565     S
V16     V4    10.0   1_655     S
V16     V22    10.0   1_565     S
V16     V32    10.0   .     S
V16     V63    10.0   1_556     S
V16     V61    10.0   1_566     S
V17     V27    10.0   1_545     S
V17     V25    10.0   .     S
V17     V11    10.0   1_545     S
V17     V3    10.0   1_545     S
V17     V41    10.0   .     S
V17     V45    10.0   1_455     S
V18     V28    10.0   1_545     S
V18     V26    10.0   .     S
V18     V12    10.0   1_545     S
V18     V4    10.0   1_545     S
V18     V42    10.0   .     S
V18     V46    10.0   1_455     S
V19     V25    10.0   .     S
V19     V27    10.0   .     S
V19     V43    10.0   .     S
V19     V47    10.0   1_455     S
V20     V26    10.0   .     S
V20     V28    10.0   .     S
V20     V44    10.0   .     S
V20     V48    10.0   1_455     S
V21     V31    10.0   1_545     S
V21     V29    10.0   .     S
V21     V15    10.0   1_545     S
V21     V7    10.0   1_545     S
V21     V45    10.0   .     S
V21     V41    10.0   .     S
V22     V32    10.0   1_545     S
V22     V30    10.0   .     S
V22     V16    10.0   1_545     S
V22     V8    10.0   1_545     S
V22     V46    10.0   .     S
V22     V42    10.0   .     S
V23     V29    10.0   .     S
V23     V31    10.0   .     S
V23     V47    10.0   .     S
V23     V43    10.0   .     S
V24     V30    10.0   .     S
V24     V32    10.0   .     S
V24     V48    10.0   .     S
V24     V44    10.0   .     S
V25     V37    10.0   1_455     S
V25     V33    10.0   .     S
V26     V38    10.0   1_455     S
V26     V34    10.0   .     S
V27     V17    10.0   1_565     S
V27     V39    10.0   1_455     S
V27     V35    10.0   .     S
V28     V18    10.0   1_565     S
V28     V40    10.0   1_455     S
V28     V36    10.0   .     S
V29     V33    10.0   .     S
V29     V37    10.0   .     S
V30     V34    10.0   .     S
V30     V38    10.0   .     S
V31     V21    10.0   1_565     S
V31     V35    10.0   .     S
V31     V39    10.0   .     S
V32     V22    10.0   1_565     S
V32     V36    10.0   .     S
V32     V40    10.0   .     S
V33     V41    10.0   .     S
V33     V43    10.0   .     S
V33     V53    10.0   .     S
V33     V57    10.0   .     S
V34     V42    10.0   .     S
V34     V44    10.0   .     S
V34     V54    10.0   .     S
V34     V58    10.0   .     S
V35     V43    10.0   .     S
V35     V41    10.0   1_565     S
V35     V55    10.0   .     S
V35     V59    10.0   .     S
V36     V44    10.0   .     S
V36     V42    10.0   1_565     S
V36     V56    10.0   .     S
V36     V60    10.0   .     S
V37     V45    10.0   .     S
V37     V47    10.0   .     S
V37     V49    10.0   1_655     S
V37     V61    10.0   .     S
V37     V25    10.0   1_655     S
V38     V46    10.0   .     S
V38     V48    10.0   .     S
V38     V50    10.0   1_655     S
V38     V62    10.0   .     S
V38     V26    10.0   1_655     S
V39     V47    10.0   .     S
V39     V45    10.0   1_565     S
V39     V51    10.0   1_655     S
V39     V63    10.0   .     S
V39     V27    10.0   1_655     S
V40     V48    10.0   .     S
V40     V46    10.0   1_565     S
V40     V52    10.0   1_655     S
V40     V64    10.0   .     S
V40     V28    10.0   1_655     S
V41     V35    10.0   1_545     S
V41     V53    10.0   .     S
V41     V57    10.0   .     S
V42     V36    10.0   1_545     S
V42     V54    10.0   .     S
V42     V58    10.0   .     S
V43     V55    10.0   .     S
V43     V59    10.0   .     S
V44     V56    10.0   .     S
V44     V60    10.0   .     S
V45     V39    10.0   1_545     S
V45     V49    10.0   1_655     S
V45     V61    10.0   .     S
V45     V17    10.0   1_655     S
V46     V40    10.0   1_545     S
V46     V50    10.0   1_655     S
V46     V62    10.0   .     S
V46     V18    10.0   1_655     S
V47     V51    10.0   1_655     S
V47     V63    10.0   .     S
V47     V19    10.0   1_655     S
V48     V52    10.0   1_655     S
V48     V64    10.0   .     S
V48     V20    10.0   1_655     S
V49     V61    10.0   1_455     S
V49     V57    10.0   .     S
V49     V45    10.0   1_455     S
V49     V37    10.0   1_455     S
V49     V4    10.0   1_544     S
V49     V2    10.0   1_554     S
V50     V62    10.0   1_455     S
V50     V58    10.0   .     S
V50     V46    10.0   1_455     S
V50     V38    10.0   1_455     S
V50     V3    10.0   1_545     S
V51     V63    10.0   1_455     S
V51     V59    10.0   .     S
V51     V47    10.0   1_455     S
V51     V39    10.0   1_455     S
V51     V2    10.0   1_554     S
V51     V4    10.0   1_554     S
V52     V64    10.0   1_455     S
V52     V60    10.0   .     S
V52     V48    10.0   1_455     S
V52     V40    10.0   1_455     S
V53     V57    10.0   .     S
V53     V61    10.0   .     S
V53     V8    10.0   1_544     S
V53     V6    10.0   1_554     S
V54     V58    10.0   .     S
V54     V62    10.0   .     S
V54     V7    10.0   1_545     S
V55     V59    10.0   .     S
V55     V63    10.0   .     S
V55     V6    10.0   1_554     S
V55     V8    10.0   1_554     S
V56     V60    10.0   .     S
V56     V64    10.0   .     S
V57     V10    10.0   1_554     S
V57     V12    10.0   1_544     S
V58     V11    10.0   1_545     S
V59     V12    10.0   1_554     S
V59     V10    10.0   1_554     S
V61     V49    10.0   1_655     S
V61     V14    10.0   1_554     S
V61     V16    10.0   1_544     S
V62     V50    10.0   1_655     S
V62     V15    10.0   1_545     S
V63     V51    10.0   1_655     S
V63     V16    10.0   1_554     S
V63     V14    10.0   1_554     S
V64     V52    10.0   1_655     S
