data_whd
_audit_creation_date              2019-12-31
_audit_creation_method            'Pymatgen'
_symmetry_space_group_name_H-M    'P1'
_symmetry_Int_Tables_number       1
loop_
_symmetry_equiv_pos_as_xyz
  x,y,z
_cell_length_a                    32.7009
_cell_length_b                    32.7009
_cell_length_c                    39.0008
_cell_angle_alpha                 90.0
_cell_angle_beta                 90.0
_cell_angle_gamma                 90.0
loop_
_atom_site_label
_atom_site_type_symbol
_atom_site_fract_x
_atom_site_fract_y
_atom_site_fract_z
V1     V     0.1179   0.3341   0.4183
V2     V     0.1179   0.3341   0.9183
V3     V     0.3341   0.1179   0.4183
V4     V     0.3341   0.1179   0.9183
V5     V     0.1179   0.6659   0.0817
V6     V     0.1179   0.6659   0.5817
V7     V     0.3341   0.8821   0.0817
V8     V     0.3341   0.8821   0.5817
V9     V     0.6659   0.1179   0.0817
V10     V     0.6659   0.1179   0.5817
V11     V     0.8821   0.3341   0.0817
V12     V     0.8821   0.3341   0.5817
V13     V     0.8821   0.6659   0.4183
V14     V     0.8821   0.6659   0.9183
V15     V     0.6659   0.8821   0.4183
V16     V     0.6659   0.8821   0.9183
V17     V     0.3821   0.1659   0.1683
V18     V     0.3821   0.1659   0.6683
V19     V     0.1659   0.3821   0.1683
V20     V     0.1659   0.3821   0.6683
V21     V     0.8341   0.3821   0.3317
V22     V     0.8341   0.3821   0.8317
V23     V     0.6179   0.1659   0.3317
V24     V     0.6179   0.1659   0.8317
V25     V     0.6179   0.8341   0.1683
V26     V     0.6179   0.8341   0.6683
V27     V     0.8341   0.6179   0.1683
V28     V     0.8341   0.6179   0.6683
V29     V     0.3821   0.8341   0.3317
V30     V     0.3821   0.8341   0.8317
V31     V     0.1659   0.6179   0.3317
V32     V     0.1659   0.6179   0.8317
loop_
_geom_bond_atom_site_label_1
_geom_bond_atom_site_label_2
_geom_bond_distance
_geom_bond_site_symmetry_2
_ccdc_geom_bond_type
V1     V31    10.0   .     S
V1     V19    10.0   .     S
V1     V3    10.0   .     S
V1     V20    10.0   .     S
V1     V12    10.0   1_455     S
V1     V21    10.0   1_455     S
V2     V32    10.0   .     S
V2     V20    10.0   .     S
V2     V4    10.0   .     S
V2     V19    10.0   1_556     S
V2     V11    10.0   1_456     S
V2     V22    10.0   1_455     S
V3     V23    10.0   .     S
V3     V17    10.0   .     S
V3     V18    10.0   .     S
V3     V8    10.0   1_545     S
V3     V29    10.0   1_545     S
V4     V24    10.0   .     S
V4     V18    10.0   .     S
V4     V17    10.0   1_556     S
V4     V7    10.0   1_546     S
V4     V30    10.0   1_545     S
V5     V19    10.0   .     S
V5     V31    10.0   .     S
V5     V7    10.0   .     S
V5     V27    10.0   1_455     S
V5     V32    10.0   1_554     S
V5     V14    10.0   1_454     S
V6     V20    10.0   .     S
V6     V32    10.0   .     S
V6     V8    10.0   .     S
V6     V28    10.0   1_455     S
V6     V31    10.0   .     S
V6     V13    10.0   1_455     S
V7     V25    10.0   .     S
V7     V29    10.0   .     S
V7     V17    10.0   1_565     S
V7     V4    10.0   1_564     S
V7     V30    10.0   1_554     S
V8     V26    10.0   .     S
V8     V30    10.0   .     S
V8     V18    10.0   1_565     S
V8     V3    10.0   1_565     S
V8     V29    10.0   .     S
V9     V17    10.0   .     S
V9     V23    10.0   .     S
V9     V11    10.0   .     S
V9     V24    10.0   1_554     S
V9     V25    10.0   1_545     S
V9     V16    10.0   1_544     S
V10     V18    10.0   .     S
V10     V24    10.0   .     S
V10     V12    10.0   .     S
V10     V23    10.0   .     S
V10     V26    10.0   1_545     S
V10     V15    10.0   1_545     S
V11     V27    10.0   .     S
V11     V21    10.0   .     S
V11     V19    10.0   1_655     S
V11     V2    10.0   1_654     S
V11     V22    10.0   1_554     S
V12     V28    10.0   .     S
V12     V22    10.0   .     S
V12     V20    10.0   1_655     S
V12     V1    10.0   1_655     S
V12     V21    10.0   .     S
V13     V21    10.0   .     S
V13     V27    10.0   .     S
V13     V15    10.0   .     S
V13     V28    10.0   .     S
V13     V31    10.0   1_655     S
V13     V6    10.0   1_655     S
V14     V22    10.0   .     S
V14     V28    10.0   .     S
V14     V16    10.0   .     S
V14     V27    10.0   1_556     S
V14     V32    10.0   1_655     S
V14     V5    10.0   1_656     S
V15     V29    10.0   .     S
V15     V25    10.0   .     S
V15     V23    10.0   1_565     S
V15     V26    10.0   .     S
V15     V10    10.0   1_565     S
V16     V30    10.0   .     S
V16     V26    10.0   .     S
V16     V24    10.0   1_565     S
V16     V25    10.0   1_556     S
V16     V9    10.0   1_566     S
V17     V23    10.0   .     S
V17     V7    10.0   1_545     S
V17     V4    10.0   1_554     S
V17     V19    10.0   .     S
V18     V24    10.0   .     S
V18     V8    10.0   1_545     S
V18     V20    10.0   .     S
V19     V31    10.0   .     S
V19     V11    10.0   1_455     S
V19     V2    10.0   1_554     S
V20     V32    10.0   .     S
V20     V12    10.0   1_455     S
V21     V27    10.0   .     S
V21     V1    10.0   1_655     S
V21     V23    10.0   .     S
V22     V28    10.0   .     S
V22     V2    10.0   1_655     S
V22     V11    10.0   1_556     S
V22     V24    10.0   .     S
V23     V15    10.0   1_545     S
V24     V16    10.0   1_545     S
V24     V9    10.0   1_556     S
V25     V29    10.0   .     S
V25     V9    10.0   1_565     S
V25     V16    10.0   1_554     S
V25     V27    10.0   .     S
V26     V30    10.0   .     S
V26     V10    10.0   1_565     S
V26     V28    10.0   .     S
V27     V5    10.0   1_655     S
V27     V14    10.0   1_554     S
V28     V6    10.0   1_655     S
V29     V3    10.0   1_565     S
V29     V31    10.0   .     S
V30     V4    10.0   1_565     S
V30     V7    10.0   1_556     S
V30     V32    10.0   .     S
V31     V13    10.0   1_455     S
V32     V14    10.0   1_455     S
V32     V5    10.0   1_556     S
