data_whf
_audit_creation_date              2019-12-31
_audit_creation_method            'Pymatgen'
_symmetry_space_group_name_H-M    'P1'
_symmetry_Int_Tables_number       1
loop_
_symmetry_equiv_pos_as_xyz
  x,y,z
_cell_length_a                    31.5701
_cell_length_b                    31.5701
_cell_length_c                    38.8368
_cell_angle_alpha                 90.0
_cell_angle_beta                 90.0
_cell_angle_gamma                 90.0
loop_
_atom_site_label
_atom_site_type_symbol
_atom_site_fract_x
_atom_site_fract_y
_atom_site_fract_z
V1     V     0.8706   0.0757   0.0416
V2     V     0.8706   0.0757   0.5416
V3     V     0.6293   0.0757   0.2084
V4     V     0.6293   0.0757   0.7084
V5     V     0.1294   0.9243   0.4584
V6     V     0.1294   0.9243   0.9584
V7     V     0.3707   0.9243   0.2916
V8     V     0.3707   0.9243   0.7916
V9     V     0.4243   0.8706   0.0416
V10     V     0.4243   0.8706   0.5416
V11     V     0.4243   0.6293   0.2084
V12     V     0.4243   0.6293   0.7084
V13     V     0.5757   0.1294   0.4584
V14     V     0.5757   0.1294   0.9584
V15     V     0.5757   0.3707   0.2916
V16     V     0.5757   0.3707   0.7916
V17     V     0.0757   0.8706   0.2084
V18     V     0.0757   0.8706   0.7084
V19     V     0.0757   0.6293   0.0416
V20     V     0.0757   0.6293   0.5416
V21     V     0.9243   0.1294   0.2916
V22     V     0.9243   0.1294   0.7916
V23     V     0.9243   0.3707   0.4584
V24     V     0.9243   0.3707   0.9584
V25     V     0.8706   0.4243   0.2084
V26     V     0.8706   0.4243   0.7084
V27     V     0.6293   0.4243   0.0416
V28     V     0.6293   0.4243   0.5416
V29     V     0.1294   0.5757   0.2916
V30     V     0.1294   0.5757   0.7916
V31     V     0.3707   0.5757   0.4584
V32     V     0.3707   0.5757   0.9584
loop_
_geom_bond_atom_site_label_1
_geom_bond_atom_site_label_2
_geom_bond_distance
_geom_bond_site_symmetry_2
_ccdc_geom_bond_type
V1     V21    10.0   .     S
V1     V14    10.0   1_554     S
V1     V3    10.0   .     S
V1     V6    10.0   1_644     S
V1     V22    10.0   1_554     S
V1     V24    10.0   1_554     S
V2     V22    10.0   .     S
V2     V13    10.0   .     S
V2     V4    10.0   .     S
V2     V5    10.0   1_645     S
V2     V21    10.0   .     S
V2     V23    10.0   .     S
V3     V21    10.0   .     S
V3     V14    10.0   1_554     S
V3     V7    10.0   1_545     S
V3     V13    10.0   .     S
V3     V15    10.0   .     S
V4     V22    10.0   .     S
V4     V13    10.0   .     S
V4     V8    10.0   1_545     S
V4     V14    10.0   .     S
V4     V16    10.0   .     S
V5     V17    10.0   .     S
V5     V10    10.0   .     S
V5     V7    10.0   .     S
V5     V2    10.0   1_465     S
V5     V18    10.0   .     S
V5     V20    10.0   .     S
V6     V18    10.0   .     S
V6     V9    10.0   1_556     S
V6     V8    10.0   .     S
V6     V1    10.0   1_466     S
V6     V17    10.0   1_556     S
V6     V19    10.0   1_556     S
V7     V17    10.0   .     S
V7     V10    10.0   .     S
V7     V3    10.0   1_565     S
V7     V9    10.0   .     S
V7     V11    10.0   .     S
V8     V18    10.0   .     S
V8     V9    10.0   1_556     S
V8     V4    10.0   1_565     S
V8     V10    10.0   .     S
V8     V12    10.0   .     S
V9     V8    10.0   1_554     S
V9     V6    10.0   1_554     S
V9     V32    10.0   1_554     S
V9     V11    10.0   .     S
V9     V14    10.0   1_564     S
V10     V31    10.0   .     S
V10     V12    10.0   .     S
V10     V13    10.0   1_565     S
V11     V32    10.0   1_554     S
V11     V15    10.0   .     S
V11     V31    10.0   .     S
V11     V29    10.0   .     S
V12     V31    10.0   .     S
V12     V16    10.0   .     S
V12     V32    10.0   .     S
V12     V30    10.0   .     S
V13     V28    10.0   .     S
V13     V15    10.0   .     S
V13     V10    10.0   1_545     S
V14     V3    10.0   1_556     S
V14     V1    10.0   1_556     S
V14     V27    10.0   1_556     S
V14     V16    10.0   .     S
V14     V9    10.0   1_546     S
V15     V28    10.0   .     S
V15     V27    10.0   .     S
V15     V25    10.0   .     S
V16     V27    10.0   1_556     S
V16     V28    10.0   .     S
V16     V26    10.0   .     S
V17     V29    10.0   .     S
V17     V6    10.0   1_554     S
V17     V19    10.0   .     S
V17     V21    10.0   1_465     S
V18     V30    10.0   .     S
V18     V20    10.0   .     S
V18     V22    10.0   1_465     S
V19     V29    10.0   .     S
V19     V6    10.0   1_554     S
V19     V24    10.0   1_454     S
V19     V30    10.0   1_554     S
V19     V32    10.0   1_554     S
V20     V30    10.0   .     S
V20     V23    10.0   1_455     S
V20     V29    10.0   .     S
V20     V31    10.0   .     S
V21     V25    10.0   .     S
V21     V23    10.0   .     S
V21     V17    10.0   1_645     S
V22     V26    10.0   .     S
V22     V1    10.0   1_556     S
V22     V24    10.0   .     S
V22     V18    10.0   1_645     S
V23     V25    10.0   .     S
V23     V20    10.0   1_655     S
V23     V26    10.0   .     S
V23     V28    10.0   .     S
V24     V26    10.0   .     S
V24     V1    10.0   1_556     S
V24     V19    10.0   1_656     S
V24     V25    10.0   1_556     S
V24     V27    10.0   1_556     S
V25     V24    10.0   1_554     S
V25     V27    10.0   .     S
V25     V29    10.0   1_655     S
V26     V28    10.0   .     S
V26     V30    10.0   1_655     S
V27     V16    10.0   1_554     S
V27     V14    10.0   1_554     S
V27     V24    10.0   1_554     S
V27     V32    10.0   1_554     S
V28     V31    10.0   .     S
V29     V31    10.0   .     S
V29     V25    10.0   1_455     S
V30     V19    10.0   1_556     S
V30     V32    10.0   .     S
V30     V26    10.0   1_455     S
V32     V11    10.0   1_556     S
V32     V9    10.0   1_556     S
V32     V19    10.0   1_556     S
V32     V27    10.0   1_556     S
