data_whm
_audit_creation_date              2019-12-31
_audit_creation_method            'Pymatgen'
_symmetry_space_group_name_H-M    'P1'
_symmetry_Int_Tables_number       1
loop_
_symmetry_equiv_pos_as_xyz
  x,y,z
_cell_length_a                    32.4533
_cell_length_b                    32.4533
_cell_length_c                    38.086
_cell_angle_alpha                 90.0
_cell_angle_beta                 90.0
_cell_angle_gamma                 90.0
loop_
_atom_site_label
_atom_site_type_symbol
_atom_site_fract_x
_atom_site_fract_y
_atom_site_fract_z
V1     V     0.4282   0.8616   0.4095
V2     V     0.4282   0.8616   0.9095
V3     V     0.4282   0.6384   0.0905
V4     V     0.4282   0.6384   0.5905
V5     V     0.3616   0.5718   0.3405
V6     V     0.3616   0.5718   0.8405
V7     V     0.1384   0.5718   0.1595
V8     V     0.1384   0.5718   0.6595
V9     V     0.0718   0.8616   0.0905
V10     V     0.0718   0.8616   0.5905
V11     V     0.0718   0.6384   0.4095
V12     V     0.0718   0.6384   0.9095
V13     V     0.3616   0.9282   0.1595
V14     V     0.3616   0.9282   0.6595
V15     V     0.1384   0.9282   0.3405
V16     V     0.1384   0.9282   0.8405
V17     V     0.6384   0.4282   0.1595
V18     V     0.6384   0.4282   0.6595
V19     V     0.8616   0.4282   0.3405
V20     V     0.8616   0.4282   0.8405
V21     V     0.9282   0.3616   0.0905
V22     V     0.9282   0.3616   0.5905
V23     V     0.9282   0.1384   0.4095
V24     V     0.9282   0.1384   0.9095
V25     V     0.6384   0.0718   0.3405
V26     V     0.6384   0.0718   0.8405
V27     V     0.8616   0.0718   0.1595
V28     V     0.8616   0.0718   0.6595
V29     V     0.5718   0.3616   0.4095
V30     V     0.5718   0.3616   0.9095
V31     V     0.5718   0.1384   0.0905
V32     V     0.5718   0.1384   0.5905
loop_
_geom_bond_atom_site_label_1
_geom_bond_atom_site_label_2
_geom_bond_distance
_geom_bond_site_symmetry_2
_ccdc_geom_bond_type
V1     V14    10.0   .     S
V1     V15    10.0   .     S
V1     V13    10.0   .     S
V1     V4    10.0   .     S
V1     V5    10.0   .     S
V1     V25    10.0   1_565     S
V2     V13    10.0   1_556     S
V2     V16    10.0   .     S
V2     V14    10.0   .     S
V2     V3    10.0   1_556     S
V2     V6    10.0   .     S
V2     V26    10.0   1_565     S
V3     V13    10.0   .     S
V3     V7    10.0   .     S
V3     V5    10.0   .     S
V3     V2    10.0   1_554     S
V3     V6    10.0   1_554     S
V3     V17    10.0   .     S
V4     V14    10.0   .     S
V4     V8    10.0   .     S
V4     V6    10.0   .     S
V4     V5    10.0   .     S
V4     V18    10.0   .     S
V5     V7    10.0   .     S
V5     V11    10.0   .     S
V5     V29    10.0   .     S
V6     V3    10.0   1_556     S
V6     V8    10.0   .     S
V6     V12    10.0   .     S
V6     V30    10.0   .     S
V7     V9    10.0   .     S
V7     V12    10.0   1_554     S
V7     V11    10.0   .     S
V7     V21    10.0   1_455     S
V8     V10    10.0   .     S
V8     V11    10.0   .     S
V8     V12    10.0   .     S
V8     V22    10.0   1_455     S
V9     V16    10.0   1_554     S
V9     V12    10.0   1_554     S
V9     V13    10.0   .     S
V9     V15    10.0   .     S
V9     V27    10.0   1_465     S
V10     V15    10.0   .     S
V10     V11    10.0   .     S
V10     V14    10.0   .     S
V10     V16    10.0   .     S
V10     V28    10.0   1_465     S
V11     V15    10.0   .     S
V11     V19    10.0   1_455     S
V12     V7    10.0   1_556     S
V12     V16    10.0   .     S
V12     V9    10.0   1_556     S
V12     V20    10.0   1_455     S
V13     V2    10.0   1_554     S
V13     V15    10.0   .     S
V13     V31    10.0   1_565     S
V14     V16    10.0   .     S
V14     V32    10.0   1_565     S
V15     V23    10.0   1_465     S
V16     V9    10.0   1_556     S
V16     V24    10.0   1_465     S
V17     V29    10.0   .     S
V17     V31    10.0   .     S
V17     V30    10.0   1_554     S
V17     V19    10.0   .     S
V17     V21    10.0   .     S
V18     V30    10.0   .     S
V18     V32    10.0   .     S
V18     V29    10.0   .     S
V18     V20    10.0   .     S
V18     V22    10.0   .     S
V19     V29    10.0   .     S
V19     V23    10.0   .     S
V19     V22    10.0   .     S
V19     V21    10.0   .     S
V19     V11    10.0   1_655     S
V20     V30    10.0   .     S
V20     V24    10.0   .     S
V20     V21    10.0   1_556     S
V20     V22    10.0   .     S
V20     V12    10.0   1_655     S
V21     V20    10.0   1_554     S
V21     V24    10.0   1_554     S
V21     V27    10.0   .     S
V21     V7    10.0   1_655     S
V22     V23    10.0   .     S
V22     V28    10.0   .     S
V22     V8    10.0   1_655     S
V23     V25    10.0   .     S
V23     V27    10.0   .     S
V23     V28    10.0   .     S
V23     V15    10.0   1_645     S
V24     V26    10.0   .     S
V24     V28    10.0   .     S
V24     V21    10.0   1_556     S
V24     V27    10.0   1_556     S
V24     V16    10.0   1_645     S
V25     V31    10.0   .     S
V25     V27    10.0   .     S
V25     V29    10.0   .     S
V25     V32    10.0   .     S
V25     V1    10.0   1_545     S
V26     V32    10.0   .     S
V26     V28    10.0   .     S
V26     V30    10.0   .     S
V26     V31    10.0   1_556     S
V26     V2    10.0   1_545     S
V27     V31    10.0   .     S
V27     V24    10.0   1_554     S
V27     V9    10.0   1_645     S
V28     V32    10.0   .     S
V28     V10    10.0   1_645     S
V29     V32    10.0   .     S
V30     V17    10.0   1_556     S
V30     V31    10.0   1_556     S
V31     V26    10.0   1_554     S
V31     V30    10.0   1_554     S
V31     V13    10.0   1_545     S
V32     V14    10.0   1_545     S
