data_whn
_audit_creation_date              2019-12-31
_audit_creation_method            'Pymatgen'
_symmetry_space_group_name_H-M    'P1'
_symmetry_Int_Tables_number       1
loop_
_symmetry_equiv_pos_as_xyz
  x,y,z
_cell_length_a                    39.6702
_cell_length_b                    39.6702
_cell_length_c                    35.2771
_cell_angle_alpha                 90.0
_cell_angle_beta                 90.0
_cell_angle_gamma                 90.0
loop_
_atom_site_label
_atom_site_type_symbol
_atom_site_fract_x
_atom_site_fract_y
_atom_site_fract_z
V1     V     0.4838   0.0615   0.8776
V2     V     0.4838   0.5615   0.8776
V3     V     0.9839   0.0615   0.8776
V4     V     0.9839   0.5615   0.8776
V5     V     0.4838   0.1885   0.1224
V6     V     0.4838   0.6885   0.1224
V7     V     0.9839   0.1885   0.1224
V8     V     0.9839   0.6885   0.1224
V9     V     0.0162   0.3115   0.8776
V10     V     0.0162   0.8115   0.8776
V11     V     0.5162   0.3115   0.8776
V12     V     0.5162   0.8115   0.8776
V13     V     0.0162   0.4385   0.1224
V14     V     0.0162   0.9385   0.1224
V15     V     0.5162   0.4385   0.1224
V16     V     0.5162   0.9385   0.1224
V17     V     0.2339   0.4385   0.8776
V18     V     0.2339   0.9385   0.8776
V19     V     0.7338   0.4385   0.8776
V20     V     0.7338   0.9385   0.8776
V21     V     0.2339   0.3115   0.1224
V22     V     0.2339   0.8115   0.1224
V23     V     0.7338   0.3115   0.1224
V24     V     0.7338   0.8115   0.1224
V25     V     0.2662   0.1885   0.8776
V26     V     0.2662   0.6885   0.8776
V27     V     0.7662   0.1885   0.8776
V28     V     0.7662   0.6885   0.8776
V29     V     0.2662   0.0615   0.1224
V30     V     0.2662   0.5615   0.1224
V31     V     0.7662   0.0615   0.1224
V32     V     0.7662   0.5615   0.1224
V33     V     0.1885   0.2662   0.6224
V34     V     0.1885   0.7662   0.6224
V35     V     0.6885   0.2662   0.6224
V36     V     0.6885   0.7662   0.6224
V37     V     0.0615   0.2662   0.3776
V38     V     0.0615   0.7662   0.3776
V39     V     0.5615   0.2662   0.3776
V40     V     0.5615   0.7662   0.3776
V41     V     0.3115   0.2339   0.3776
V42     V     0.3115   0.7338   0.3776
V43     V     0.8115   0.2339   0.3776
V44     V     0.8115   0.7338   0.3776
V45     V     0.4385   0.2339   0.6224
V46     V     0.4385   0.7338   0.6224
V47     V     0.9385   0.2339   0.6224
V48     V     0.9385   0.7338   0.6224
V49     V     0.4385   0.0162   0.3776
V50     V     0.4385   0.5162   0.3776
V51     V     0.9385   0.0162   0.3776
V52     V     0.9385   0.5162   0.3776
V53     V     0.3115   0.0162   0.6224
V54     V     0.3115   0.5162   0.6224
V55     V     0.8115   0.0162   0.6224
V56     V     0.8115   0.5162   0.6224
V57     V     0.0615   0.4838   0.6224
V58     V     0.0615   0.9839   0.6224
V59     V     0.5615   0.4838   0.6224
V60     V     0.5615   0.9839   0.6224
V61     V     0.1885   0.4838   0.3776
V62     V     0.1885   0.9839   0.3776
V63     V     0.6885   0.4838   0.3776
V64     V     0.6885   0.9839   0.3776
loop_
_geom_bond_atom_site_label_1
_geom_bond_atom_site_label_2
_geom_bond_distance
_geom_bond_site_symmetry_2
_ccdc_geom_bond_type
V1     V5    10.0   1_556     S
V1     V16    10.0   1_546     S
V1     V12    10.0   1_545     S
V1     V11    10.0   .     S
V1     V25    10.0   .     S
V1     V60    10.0   1_545     S
V2     V6    10.0   1_556     S
V2     V15    10.0   1_556     S
V2     V11    10.0   .     S
V2     V12    10.0   .     S
V2     V26    10.0   .     S
V2     V59    10.0   .     S
V3     V7    10.0   1_556     S
V3     V14    10.0   1_646     S
V3     V10    10.0   1_645     S
V3     V9    10.0   1_655     S
V3     V27    10.0   .     S
V3     V58    10.0   1_645     S
V4     V8    10.0   1_556     S
V4     V13    10.0   1_656     S
V4     V9    10.0   1_655     S
V4     V10    10.0   1_655     S
V4     V28    10.0   .     S
V4     V57    10.0   1_655     S
V5     V1    10.0   1_554     S
V5     V16    10.0   1_545     S
V5     V11    10.0   1_554     S
V5     V15    10.0   .     S
V5     V29    10.0   .     S
V5     V39    10.0   .     S
V6     V2    10.0   1_554     S
V6     V15    10.0   .     S
V6     V12    10.0   1_554     S
V6     V16    10.0   .     S
V6     V30    10.0   .     S
V6     V40    10.0   .     S
V7     V3    10.0   1_554     S
V7     V14    10.0   1_645     S
V7     V9    10.0   1_654     S
V7     V13    10.0   1_655     S
V7     V31    10.0   .     S
V7     V37    10.0   1_655     S
V8     V4    10.0   1_554     S
V8     V13    10.0   1_655     S
V8     V10    10.0   1_654     S
V8     V14    10.0   1_655     S
V8     V32    10.0   .     S
V8     V38    10.0   1_655     S
V9     V4    10.0   1_455     S
V9     V13    10.0   1_556     S
V9     V7    10.0   1_456     S
V9     V3    10.0   1_455     S
V9     V17    10.0   .     S
V9     V47    10.0   1_455     S
V10     V3    10.0   1_465     S
V10     V14    10.0   1_556     S
V10     V8    10.0   1_456     S
V10     V4    10.0   1_455     S
V10     V18    10.0   .     S
V10     V48    10.0   1_455     S
V11     V15    10.0   1_556     S
V11     V5    10.0   1_556     S
V11     V19    10.0   .     S
V11     V45    10.0   .     S
V12     V1    10.0   1_565     S
V12     V16    10.0   1_556     S
V12     V6    10.0   1_556     S
V12     V20    10.0   .     S
V12     V46    10.0   .     S
V13     V4    10.0   1_454     S
V13     V8    10.0   1_455     S
V13     V9    10.0   1_554     S
V13     V7    10.0   1_455     S
V13     V21    10.0   .     S
V13     V52    10.0   1_455     S
V14     V3    10.0   1_464     S
V14     V7    10.0   1_465     S
V14     V10    10.0   1_554     S
V14     V8    10.0   1_455     S
V14     V22    10.0   .     S
V14     V51    10.0   1_465     S
V15     V2    10.0   1_554     S
V15     V11    10.0   1_554     S
V15     V23    10.0   .     S
V15     V50    10.0   .     S
V16     V1    10.0   1_564     S
V16     V5    10.0   1_565     S
V16     V12    10.0   1_554     S
V16     V24    10.0   .     S
V16     V49    10.0   1_565     S
V17     V21    10.0   1_556     S
V17     V30    10.0   1_556     S
V17     V26    10.0   .     S
V17     V25    10.0   .     S
V17     V54    10.0   .     S
V18     V22    10.0   1_556     S
V18     V29    10.0   1_566     S
V18     V25    10.0   1_565     S
V18     V26    10.0   .     S
V18     V53    10.0   1_565     S
V19     V23    10.0   1_556     S
V19     V32    10.0   1_556     S
V19     V28    10.0   .     S
V19     V27    10.0   .     S
V19     V56    10.0   .     S
V20     V24    10.0   1_556     S
V20     V31    10.0   1_566     S
V20     V27    10.0   1_565     S
V20     V28    10.0   .     S
V20     V55    10.0   1_565     S
V21     V17    10.0   1_554     S
V21     V30    10.0   .     S
V21     V25    10.0   1_554     S
V21     V29    10.0   .     S
V21     V41    10.0   .     S
V22     V18    10.0   1_554     S
V22     V29    10.0   1_565     S
V22     V26    10.0   1_554     S
V22     V30    10.0   .     S
V22     V42    10.0   .     S
V23     V19    10.0   1_554     S
V23     V32    10.0   .     S
V23     V27    10.0   1_554     S
V23     V31    10.0   .     S
V23     V43    10.0   .     S
V24     V20    10.0   1_554     S
V24     V31    10.0   1_565     S
V24     V28    10.0   1_554     S
V24     V32    10.0   .     S
V24     V44    10.0   .     S
V25     V18    10.0   1_545     S
V25     V21    10.0   1_556     S
V25     V29    10.0   1_556     S
V25     V33    10.0   .     S
V26     V22    10.0   1_556     S
V26     V30    10.0   1_556     S
V26     V34    10.0   .     S
V27     V20    10.0   1_545     S
V27     V23    10.0   1_556     S
V27     V31    10.0   1_556     S
V27     V35    10.0   .     S
V28     V24    10.0   1_556     S
V28     V32    10.0   1_556     S
V28     V36    10.0   .     S
V29     V18    10.0   1_544     S
V29     V22    10.0   1_545     S
V29     V25    10.0   1_554     S
V29     V62    10.0   1_545     S
V30     V17    10.0   1_554     S
V30     V26    10.0   1_554     S
V30     V61    10.0   .     S
V31     V20    10.0   1_544     S
V31     V24    10.0   1_545     S
V31     V27    10.0   1_554     S
V31     V64    10.0   1_545     S
V32     V19    10.0   1_554     S
V32     V28    10.0   1_554     S
V32     V63    10.0   .     S
V33     V47    10.0   1_455     S
V33     V37    10.0   .     S
V33     V41    10.0   .     S
V33     V45    10.0   .     S
V33     V57    10.0   .     S
V34     V48    10.0   1_455     S
V34     V38    10.0   .     S
V34     V42    10.0   .     S
V34     V46    10.0   .     S
V34     V58    10.0   .     S
V35     V45    10.0   .     S
V35     V39    10.0   .     S
V35     V43    10.0   .     S
V35     V47    10.0   .     S
V35     V59    10.0   .     S
V36     V46    10.0   .     S
V36     V40    10.0   .     S
V36     V44    10.0   .     S
V36     V48    10.0   .     S
V36     V60    10.0   .     S
V37     V47    10.0   1_455     S
V37     V43    10.0   1_455     S
V37     V41    10.0   .     S
V37     V61    10.0   .     S
V37     V7    10.0   1_455     S
V38     V48    10.0   1_455     S
V38     V44    10.0   1_455     S
V38     V42    10.0   .     S
V38     V62    10.0   .     S
V38     V8    10.0   1_455     S
V39     V45    10.0   .     S
V39     V41    10.0   .     S
V39     V43    10.0   .     S
V39     V63    10.0   .     S
V40     V46    10.0   .     S
V40     V42    10.0   .     S
V40     V44    10.0   .     S
V40     V64    10.0   .     S
V41     V45    10.0   .     S
V41     V49    10.0   .     S
V42     V46    10.0   .     S
V42     V50    10.0   .     S
V43     V37    10.0   1_655     S
V43     V47    10.0   .     S
V43     V51    10.0   .     S
V44     V38    10.0   1_655     S
V44     V48    10.0   .     S
V44     V52    10.0   .     S
V45     V53    10.0   .     S
V46     V54    10.0   .     S
V47     V9    10.0   1_655     S
V47     V37    10.0   1_655     S
V47     V33    10.0   1_655     S
V47     V55    10.0   .     S
V48     V10    10.0   1_655     S
V48     V38    10.0   1_655     S
V48     V34    10.0   1_655     S
V48     V56    10.0   .     S
V49     V16    10.0   1_545     S
V49     V62    10.0   1_545     S
V49     V53    10.0   .     S
V49     V60    10.0   1_545     S
V49     V64    10.0   1_545     S
V50     V61    10.0   .     S
V50     V54    10.0   .     S
V50     V59    10.0   .     S
V50     V63    10.0   .     S
V51     V14    10.0   1_645     S
V51     V64    10.0   1_545     S
V51     V55    10.0   .     S
V51     V58    10.0   1_645     S
V51     V62    10.0   1_645     S
V52     V13    10.0   1_655     S
V52     V63    10.0   .     S
V52     V56    10.0   .     S
V52     V57    10.0   1_655     S
V52     V61    10.0   1_655     S
V53     V62    10.0   1_545     S
V53     V58    10.0   1_545     S
V53     V60    10.0   1_545     S
V53     V18    10.0   1_545     S
V54     V61    10.0   .     S
V54     V57    10.0   .     S
V54     V59    10.0   .     S
V55     V64    10.0   1_545     S
V55     V60    10.0   1_545     S
V55     V58    10.0   1_645     S
V55     V20    10.0   1_545     S
V56     V63    10.0   .     S
V56     V59    10.0   .     S
V56     V57    10.0   1_655     S
V57     V52    10.0   1_455     S
V57     V56    10.0   1_455     S
V57     V61    10.0   .     S
V57     V4    10.0   1_455     S
V58     V53    10.0   1_565     S
V58     V51    10.0   1_465     S
V58     V55    10.0   1_465     S
V58     V62    10.0   .     S
V58     V3    10.0   1_465     S
V59     V63    10.0   .     S
V60     V55    10.0   1_565     S
V60     V49    10.0   1_565     S
V60     V53    10.0   1_565     S
V60     V64    10.0   .     S
V60     V1    10.0   1_565     S
V61     V52    10.0   1_455     S
V62     V29    10.0   1_565     S
V62     V53    10.0   1_565     S
V62     V49    10.0   1_565     S
V62     V51    10.0   1_465     S
V64     V31    10.0   1_565     S
V64     V55    10.0   1_565     S
V64     V51    10.0   1_565     S
V64     V49    10.0   1_565     S
