data_who
_audit_creation_date              2019-12-31
_audit_creation_method            'Pymatgen'
_symmetry_space_group_name_H-M    'P1'
_symmetry_Int_Tables_number       1
loop_
_symmetry_equiv_pos_as_xyz
  x,y,z
_cell_length_a                    39.6704
_cell_length_b                    39.6704
_cell_length_c                    36.6153
_cell_angle_alpha                 90.0
_cell_angle_beta                 90.0
_cell_angle_gamma                 90.0
loop_
_atom_site_label
_atom_site_type_symbol
_atom_site_fract_x
_atom_site_fract_y
_atom_site_fract_z
V1     V     0.0615   0.0162   0.6179
V2     V     0.0615   0.5162   0.6179
V3     V     0.5615   0.0162   0.6179
V4     V     0.5615   0.5162   0.6179
V5     V     0.1885   0.2338   0.6179
V6     V     0.1885   0.7338   0.6179
V7     V     0.6885   0.2338   0.6179
V8     V     0.6885   0.7338   0.6179
V9     V     0.0162   0.0615   0.8821
V10     V     0.0162   0.5615   0.8821
V11     V     0.5162   0.0615   0.8821
V12     V     0.5162   0.5615   0.8821
V13     V     0.2338   0.1885   0.8821
V14     V     0.2338   0.6885   0.8821
V15     V     0.7338   0.1885   0.8821
V16     V     0.7338   0.6885   0.8821
V17     V     0.3115   0.2662   0.3821
V18     V     0.3115   0.7662   0.3821
V19     V     0.8115   0.2662   0.3821
V20     V     0.8115   0.7662   0.3821
V21     V     0.4385   0.4838   0.3821
V22     V     0.4385   0.9838   0.3821
V23     V     0.9385   0.4838   0.3821
V24     V     0.9385   0.9838   0.3821
V25     V     0.2662   0.3115   0.1179
V26     V     0.2662   0.8115   0.1179
V27     V     0.7662   0.3115   0.1179
V28     V     0.7662   0.8115   0.1179
V29     V     0.4838   0.4385   0.1179
V30     V     0.4838   0.9385   0.1179
V31     V     0.9838   0.4385   0.1179
V32     V     0.9838   0.9385   0.1179
V33     V     0.4385   0.2662   0.6179
V34     V     0.4385   0.7662   0.6179
V35     V     0.9385   0.2662   0.6179
V36     V     0.9385   0.7662   0.6179
V37     V     0.3115   0.4838   0.6179
V38     V     0.3115   0.9838   0.6179
V39     V     0.8115   0.4838   0.6179
V40     V     0.8115   0.9838   0.6179
V41     V     0.2662   0.4385   0.8821
V42     V     0.2662   0.9385   0.8821
V43     V     0.7662   0.4385   0.8821
V44     V     0.7662   0.9385   0.8821
V45     V     0.4838   0.3115   0.8821
V46     V     0.4838   0.8115   0.8821
V47     V     0.9838   0.3115   0.8821
V48     V     0.9838   0.8115   0.8821
V49     V     0.1885   0.0162   0.3821
V50     V     0.1885   0.5162   0.3821
V51     V     0.6885   0.0162   0.3821
V52     V     0.6885   0.5162   0.3821
V53     V     0.0615   0.2338   0.3821
V54     V     0.0615   0.7338   0.3821
V55     V     0.5615   0.2338   0.3821
V56     V     0.5615   0.7338   0.3821
V57     V     0.0162   0.1885   0.1179
V58     V     0.0162   0.6885   0.1179
V59     V     0.5162   0.1885   0.1179
V60     V     0.5162   0.6885   0.1179
V61     V     0.2338   0.0615   0.1179
V62     V     0.2338   0.5615   0.1179
V63     V     0.7338   0.0615   0.1179
V64     V     0.7338   0.5615   0.1179
loop_
_geom_bond_atom_site_label_1
_geom_bond_atom_site_label_2
_geom_bond_distance
_geom_bond_site_symmetry_2
_ccdc_geom_bond_type
V1     V5    10.0   .     S
V1     V9    10.0   .     S
V1     V24    10.0   1_445     S
V1     V49    10.0   .     S
V1     V38    10.0   1_545     S
V1     V40    10.0   1_445     S
V2     V6    10.0   .     S
V2     V10    10.0   .     S
V2     V23    10.0   1_455     S
V2     V50    10.0   .     S
V2     V37    10.0   .     S
V2     V39    10.0   1_455     S
V3     V7    10.0   .     S
V3     V11    10.0   .     S
V3     V22    10.0   1_545     S
V3     V51    10.0   .     S
V3     V40    10.0   1_545     S
V3     V38    10.0   1_545     S
V4     V8    10.0   .     S
V4     V12    10.0   .     S
V4     V21    10.0   .     S
V4     V52    10.0   .     S
V4     V39    10.0   .     S
V4     V37    10.0   .     S
V5     V13    10.0   .     S
V5     V17    10.0   .     S
V5     V33    10.0   .     S
V5     V53    10.0   .     S
V5     V35    10.0   1_455     S
V6     V14    10.0   .     S
V6     V18    10.0   .     S
V6     V34    10.0   .     S
V6     V54    10.0   .     S
V6     V36    10.0   1_455     S
V7     V15    10.0   .     S
V7     V19    10.0   .     S
V7     V35    10.0   .     S
V7     V55    10.0   .     S
V7     V33    10.0   .     S
V8     V16    10.0   .     S
V8     V20    10.0   .     S
V8     V36    10.0   .     S
V8     V56    10.0   .     S
V8     V34    10.0   .     S
V9     V57    10.0   1_556     S
V9     V47    10.0   1_455     S
V9     V13    10.0   .     S
V9     V32    10.0   1_446     S
V9     V48    10.0   1_445     S
V10     V58    10.0   1_556     S
V10     V48    10.0   1_455     S
V10     V14    10.0   .     S
V10     V31    10.0   1_456     S
V10     V47    10.0   1_455     S
V11     V59    10.0   1_556     S
V11     V45    10.0   .     S
V11     V15    10.0   .     S
V11     V30    10.0   1_546     S
V11     V46    10.0   1_545     S
V12     V60    10.0   1_556     S
V12     V46    10.0   .     S
V12     V16    10.0   .     S
V12     V29    10.0   1_556     S
V12     V45    10.0   .     S
V13     V61    10.0   1_556     S
V13     V42    10.0   1_545     S
V13     V41    10.0   .     S
V13     V25    10.0   1_556     S
V14     V62    10.0   1_556     S
V14     V41    10.0   .     S
V14     V42    10.0   .     S
V14     V26    10.0   1_556     S
V15     V63    10.0   1_556     S
V15     V44    10.0   1_545     S
V15     V43    10.0   .     S
V15     V27    10.0   1_556     S
V16     V64    10.0   1_556     S
V16     V43    10.0   .     S
V16     V44    10.0   .     S
V16     V28    10.0   1_556     S
V17     V21    10.0   .     S
V17     V25    10.0   .     S
V17     V33    10.0   .     S
V17     V55    10.0   .     S
V17     V53    10.0   .     S
V18     V22    10.0   .     S
V18     V26    10.0   .     S
V18     V34    10.0   .     S
V18     V56    10.0   .     S
V18     V54    10.0   .     S
V19     V23    10.0   .     S
V19     V27    10.0   .     S
V19     V35    10.0   .     S
V19     V53    10.0   1_655     S
V19     V55    10.0   .     S
V20     V24    10.0   .     S
V20     V28    10.0   .     S
V20     V36    10.0   .     S
V20     V54    10.0   1_655     S
V20     V56    10.0   .     S
V21     V29    10.0   .     S
V21     V52    10.0   .     S
V21     V37    10.0   .     S
V21     V50    10.0   .     S
V22     V30    10.0   .     S
V22     V3    10.0   1_565     S
V22     V51    10.0   1_565     S
V22     V38    10.0   .     S
V22     V49    10.0   1_565     S
V23     V31    10.0   .     S
V23     V2    10.0   1_655     S
V23     V50    10.0   1_655     S
V23     V39    10.0   .     S
V23     V52    10.0   .     S
V24     V32    10.0   .     S
V24     V1    10.0   1_665     S
V24     V49    10.0   1_665     S
V24     V40    10.0   .     S
V24     V51    10.0   1_565     S
V25     V61    10.0   .     S
V25     V41    10.0   1_554     S
V25     V62    10.0   .     S
V25     V29    10.0   .     S
V25     V13    10.0   1_554     S
V26     V62    10.0   .     S
V26     V42    10.0   1_554     S
V26     V61    10.0   1_565     S
V26     V30    10.0   .     S
V26     V14    10.0   1_554     S
V27     V63    10.0   .     S
V27     V43    10.0   1_554     S
V27     V64    10.0   .     S
V27     V31    10.0   .     S
V27     V15    10.0   1_554     S
V28     V64    10.0   .     S
V28     V44    10.0   1_554     S
V28     V63    10.0   1_565     S
V28     V32    10.0   .     S
V28     V16    10.0   1_554     S
V29     V60    10.0   .     S
V29     V12    10.0   1_554     S
V29     V45    10.0   1_554     S
V29     V59    10.0   .     S
V30     V59    10.0   1_565     S
V30     V11    10.0   1_564     S
V30     V46    10.0   1_554     S
V30     V60    10.0   .     S
V31     V58    10.0   1_655     S
V31     V10    10.0   1_654     S
V31     V47    10.0   1_554     S
V31     V57    10.0   1_655     S
V32     V57    10.0   1_665     S
V32     V9    10.0   1_664     S
V32     V48    10.0   1_554     S
V32     V58    10.0   1_655     S
V33     V37    10.0   .     S
V33     V45    10.0   .     S
V33     V55    10.0   .     S
V34     V38    10.0   .     S
V34     V46    10.0   .     S
V34     V56    10.0   .     S
V35     V5    10.0   1_655     S
V35     V39    10.0   .     S
V35     V47    10.0   .     S
V35     V53    10.0   1_655     S
V36     V6    10.0   1_655     S
V36     V40    10.0   .     S
V36     V48    10.0   .     S
V36     V54    10.0   1_655     S
V37     V41    10.0   .     S
V37     V50    10.0   .     S
V38     V1    10.0   1_565     S
V38     V42    10.0   .     S
V38     V49    10.0   1_565     S
V38     V3    10.0   1_565     S
V39     V43    10.0   .     S
V39     V52    10.0   .     S
V39     V2    10.0   1_655     S
V40     V3    10.0   1_565     S
V40     V44    10.0   .     S
V40     V51    10.0   1_565     S
V40     V1    10.0   1_665     S
V41     V25    10.0   1_556     S
V41     V45    10.0   .     S
V41     V62    10.0   1_556     S
V42     V13    10.0   1_565     S
V42     V26    10.0   1_556     S
V42     V46    10.0   .     S
V42     V61    10.0   1_566     S
V43     V27    10.0   1_556     S
V43     V47    10.0   .     S
V43     V64    10.0   1_556     S
V44     V15    10.0   1_565     S
V44     V28    10.0   1_556     S
V44     V48    10.0   .     S
V44     V63    10.0   1_566     S
V45     V29    10.0   1_556     S
V45     V59    10.0   1_556     S
V46     V30    10.0   1_556     S
V46     V11    10.0   1_565     S
V46     V60    10.0   1_556     S
V47     V9    10.0   1_655     S
V47     V31    10.0   1_556     S
V47     V10    10.0   1_655     S
V47     V57    10.0   1_656     S
V48     V10    10.0   1_655     S
V48     V32    10.0   1_556     S
V48     V9    10.0   1_665     S
V48     V58    10.0   1_656     S
V49     V24    10.0   1_445     S
V49     V53    10.0   .     S
V49     V61    10.0   .     S
V49     V38    10.0   1_545     S
V49     V22    10.0   1_545     S
V50     V23    10.0   1_455     S
V50     V54    10.0   .     S
V50     V62    10.0   .     S
V51     V22    10.0   1_545     S
V51     V55    10.0   .     S
V51     V63    10.0   .     S
V51     V40    10.0   1_545     S
V51     V24    10.0   1_545     S
V52     V56    10.0   .     S
V52     V64    10.0   .     S
V53     V19    10.0   1_455     S
V53     V57    10.0   .     S
V53     V35    10.0   1_455     S
V54     V20    10.0   1_455     S
V54     V58    10.0   .     S
V54     V36    10.0   1_455     S
V55     V59    10.0   .     S
V56     V60    10.0   .     S
V57     V9    10.0   1_554     S
V57     V32    10.0   1_445     S
V57     V31    10.0   1_455     S
V57     V61    10.0   .     S
V57     V47    10.0   1_454     S
V58     V10    10.0   1_554     S
V58     V31    10.0   1_455     S
V58     V32    10.0   1_455     S
V58     V62    10.0   .     S
V58     V48    10.0   1_454     S
V59     V11    10.0   1_554     S
V59     V30    10.0   1_545     S
V59     V63    10.0   .     S
V59     V45    10.0   1_554     S
V60     V12    10.0   1_554     S
V60     V64    10.0   .     S
V60     V46    10.0   1_554     S
V61     V13    10.0   1_554     S
V61     V26    10.0   1_545     S
V61     V42    10.0   1_544     S
V62     V14    10.0   1_554     S
V62     V41    10.0   1_554     S
V63     V15    10.0   1_554     S
V63     V28    10.0   1_545     S
V63     V44    10.0   1_544     S
V64     V16    10.0   1_554     S
V64     V43    10.0   1_554     S
