data_whp
_audit_creation_date              2019-12-31
_audit_creation_method            'Pymatgen'
_symmetry_space_group_name_H-M    'P1'
_symmetry_Int_Tables_number       1
loop_
_symmetry_equiv_pos_as_xyz
  x,y,z
_cell_length_a                    31.852
_cell_length_b                    31.852
_cell_length_c                    35.9606
_cell_angle_alpha                 90.0
_cell_angle_beta                 90.0
_cell_angle_gamma                 90.0
loop_
_atom_site_label
_atom_site_type_symbol
_atom_site_fract_x
_atom_site_fract_y
_atom_site_fract_z
V1     V     0.6813   0.4593   0.3576
V2     V     0.6813   0.4593   0.8576
V3     V     0.8187   0.4593   0.1076
V4     V     0.8187   0.4593   0.6076
V5     V     0.9593   0.1813   0.1424
V6     V     0.9593   0.1813   0.6424
V7     V     0.9593   0.3187   0.3924
V8     V     0.9593   0.3187   0.8924
V9     V     0.6813   0.0407   0.1076
V10     V     0.6813   0.0407   0.6076
V11     V     0.8187   0.0407   0.3576
V12     V     0.8187   0.0407   0.8576
V13     V     0.5407   0.1813   0.3924
V14     V     0.5407   0.1813   0.8924
V15     V     0.5407   0.3187   0.1424
V16     V     0.5407   0.3187   0.6424
V17     V     0.1813   0.9593   0.1424
V18     V     0.1813   0.9593   0.6424
V19     V     0.3187   0.9593   0.3924
V20     V     0.3187   0.9593   0.8924
V21     V     0.4593   0.6813   0.3576
V22     V     0.4593   0.6813   0.8576
V23     V     0.4593   0.8187   0.1076
V24     V     0.4593   0.8187   0.6076
V25     V     0.0407   0.6813   0.1076
V26     V     0.0407   0.6813   0.6076
V27     V     0.0407   0.8187   0.3576
V28     V     0.0407   0.8187   0.8576
V29     V     0.3187   0.5407   0.1424
V30     V     0.3187   0.5407   0.6424
V31     V     0.1813   0.5407   0.3924
V32     V     0.1813   0.5407   0.8924
loop_
_geom_bond_atom_site_label_1
_geom_bond_atom_site_label_2
_geom_bond_distance
_geom_bond_site_symmetry_2
_ccdc_geom_bond_type
V1     V3    10.0   .     S
V1     V4    10.0   .     S
V1     V7    10.0   .     S
V1     V15    10.0   .     S
V1     V13    10.0   .     S
V1     V21    10.0   .     S
V2     V4    10.0   .     S
V2     V3    10.0   1_556     S
V2     V8    10.0   .     S
V2     V16    10.0   .     S
V2     V14    10.0   .     S
V2     V22    10.0   .     S
V3     V2    10.0   1_554     S
V3     V8    10.0   1_554     S
V3     V5    10.0   .     S
V3     V15    10.0   .     S
V3     V25    10.0   1_655     S
V4     V7    10.0   .     S
V4     V6    10.0   .     S
V4     V16    10.0   .     S
V4     V26    10.0   1_655     S
V5     V7    10.0   .     S
V5     V8    10.0   1_554     S
V5     V11    10.0   .     S
V5     V9    10.0   .     S
V5     V17    10.0   1_645     S
V6     V8    10.0   .     S
V6     V7    10.0   .     S
V6     V12    10.0   .     S
V6     V10    10.0   .     S
V6     V18    10.0   1_645     S
V7     V11    10.0   .     S
V7     V31    10.0   1_655     S
V8     V3    10.0   1_556     S
V8     V5    10.0   1_556     S
V8     V12    10.0   .     S
V8     V32    10.0   1_655     S
V9     V11    10.0   .     S
V9     V12    10.0   1_554     S
V9     V14    10.0   1_554     S
V9     V15    10.0   .     S
V9     V23    10.0   1_545     S
V10     V12    10.0   .     S
V10     V11    10.0   .     S
V10     V13    10.0   .     S
V10     V16    10.0   .     S
V10     V24    10.0   1_545     S
V11     V13    10.0   .     S
V11     V27    10.0   1_645     S
V12     V9    10.0   1_556     S
V12     V14    10.0   .     S
V12     V28    10.0   1_645     S
V13     V15    10.0   .     S
V13     V16    10.0   .     S
V13     V19    10.0   1_545     S
V14     V9    10.0   1_556     S
V14     V16    10.0   .     S
V14     V15    10.0   1_556     S
V14     V20    10.0   1_545     S
V15     V14    10.0   1_554     S
V15     V29    10.0   .     S
V16     V30    10.0   .     S
V17     V23    10.0   .     S
V17     V19    10.0   .     S
V17     V20    10.0   1_554     S
V17     V27    10.0   .     S
V17     V25    10.0   .     S
V17     V5    10.0   1_465     S
V18     V24    10.0   .     S
V18     V20    10.0   .     S
V18     V19    10.0   .     S
V18     V28    10.0   .     S
V18     V26    10.0   .     S
V18     V6    10.0   1_465     S
V19     V24    10.0   .     S
V19     V21    10.0   .     S
V19     V27    10.0   .     S
V19     V13    10.0   1_565     S
V20     V23    10.0   1_556     S
V20     V22    10.0   .     S
V20     V17    10.0   1_556     S
V20     V28    10.0   .     S
V20     V14    10.0   1_565     S
V21     V24    10.0   .     S
V21     V23    10.0   .     S
V21     V29    10.0   .     S
V21     V31    10.0   .     S
V22     V23    10.0   1_556     S
V22     V24    10.0   .     S
V22     V30    10.0   .     S
V22     V32    10.0   .     S
V23     V20    10.0   1_554     S
V23     V22    10.0   1_554     S
V23     V29    10.0   .     S
V23     V9    10.0   1_565     S
V24     V30    10.0   .     S
V24     V10    10.0   1_565     S
V25     V3    10.0   1_455     S
V25     V28    10.0   1_554     S
V25     V27    10.0   .     S
V25     V32    10.0   1_554     S
V25     V29    10.0   .     S
V26     V4    10.0   1_455     S
V26     V27    10.0   .     S
V26     V28    10.0   .     S
V26     V31    10.0   .     S
V26     V30    10.0   .     S
V27     V31    10.0   .     S
V27     V11    10.0   1_465     S
V28     V25    10.0   1_556     S
V28     V32    10.0   .     S
V28     V12    10.0   1_465     S
V29     V32    10.0   1_554     S
V29     V31    10.0   .     S
V30     V31    10.0   .     S
V30     V32    10.0   .     S
V31     V7    10.0   1_455     S
V32     V25    10.0   1_556     S
V32     V29    10.0   1_556     S
V32     V8    10.0   1_455     S
