data_whr
_audit_creation_date              2019-12-31
_audit_creation_method            'Pymatgen'
_symmetry_space_group_name_H-M    'P1'
_symmetry_Int_Tables_number       1
loop_
_symmetry_equiv_pos_as_xyz
  x,y,z
_cell_length_a                    32.0237
_cell_length_b                    32.0237
_cell_length_c                    35.4044
_cell_angle_alpha                 90.0
_cell_angle_beta                 90.0
_cell_angle_gamma                 90.0
loop_
_atom_site_label
_atom_site_type_symbol
_atom_site_fract_x
_atom_site_fract_y
_atom_site_fract_z
V1     V     0.5727   0.7075   0.4868
V2     V     0.5727   0.7075   0.9868
V3     V     0.7075   0.5727   0.2632
V4     V     0.7075   0.5727   0.7632
V5     V     0.5727   0.2925   0.2368
V6     V     0.5727   0.2925   0.7368
V7     V     0.7075   0.4273   0.0132
V8     V     0.7075   0.4273   0.5132
V9     V     0.4273   0.2925   0.4868
V10     V     0.4273   0.2925   0.9868
V11     V     0.2925   0.4273   0.2632
V12     V     0.2925   0.4273   0.7632
V13     V     0.4273   0.7075   0.2368
V14     V     0.4273   0.7075   0.7368
V15     V     0.2925   0.5727   0.0132
V16     V     0.2925   0.5727   0.5132
V17     V     0.0727   0.2075   0.2368
V18     V     0.0727   0.2075   0.7368
V19     V     0.2075   0.0727   0.0132
V20     V     0.2075   0.0727   0.5132
V21     V     0.0727   0.7925   0.4868
V22     V     0.0727   0.7925   0.9868
V23     V     0.2075   0.9273   0.2632
V24     V     0.2075   0.9273   0.7632
V25     V     0.9273   0.7925   0.2368
V26     V     0.9273   0.7925   0.7368
V27     V     0.7925   0.9273   0.0132
V28     V     0.7925   0.9273   0.5132
V29     V     0.9273   0.2075   0.4868
V30     V     0.9273   0.2075   0.9868
V31     V     0.7925   0.0727   0.2632
V32     V     0.7925   0.0727   0.7632
loop_
_geom_bond_atom_site_label_1
_geom_bond_atom_site_label_2
_geom_bond_distance
_geom_bond_site_symmetry_2
_ccdc_geom_bond_type
V1     V8    10.0   .     S
V1     V3    10.0   .     S
V1     V13    10.0   .     S
V1     V16    10.0   .     S
V1     V14    10.0   .     S
V1     V28    10.0   .     S
V2     V7    10.0   1_556     S
V2     V4    10.0   .     S
V2     V14    10.0   .     S
V2     V15    10.0   1_556     S
V2     V13    10.0   1_556     S
V2     V27    10.0   1_556     S
V3     V8    10.0   .     S
V3     V13    10.0   .     S
V3     V5    10.0   .     S
V3     V7    10.0   .     S
V3     V25    10.0   .     S
V4     V7    10.0   1_556     S
V4     V14    10.0   .     S
V4     V6    10.0   .     S
V4     V8    10.0   .     S
V4     V26    10.0   .     S
V5     V7    10.0   .     S
V5     V10    10.0   1_554     S
V5     V11    10.0   .     S
V5     V9    10.0   .     S
V5     V31    10.0   .     S
V6     V8    10.0   .     S
V6     V9    10.0   .     S
V6     V12    10.0   .     S
V6     V10    10.0   .     S
V6     V32    10.0   .     S
V7     V2    10.0   1_554     S
V7     V4    10.0   1_554     S
V7     V10    10.0   1_554     S
V7     V30    10.0   1_554     S
V8     V9    10.0   .     S
V8     V29    10.0   .     S
V9     V16    10.0   .     S
V9     V11    10.0   .     S
V9     V20    10.0   .     S
V10     V7    10.0   1_556     S
V10     V5    10.0   1_556     S
V10     V15    10.0   1_556     S
V10     V12    10.0   .     S
V10     V19    10.0   1_556     S
V11     V16    10.0   .     S
V11     V13    10.0   .     S
V11     V15    10.0   .     S
V11     V17    10.0   .     S
V12     V15    10.0   1_556     S
V12     V14    10.0   .     S
V12     V16    10.0   .     S
V12     V18    10.0   .     S
V13     V2    10.0   1_554     S
V13     V15    10.0   .     S
V13     V23    10.0   .     S
V14     V16    10.0   .     S
V14     V24    10.0   .     S
V15     V10    10.0   1_554     S
V15     V12    10.0   1_554     S
V15     V2    10.0   1_554     S
V15     V22    10.0   1_554     S
V16     V21    10.0   .     S
V17     V23    10.0   1_545     S
V17     V19    10.0   .     S
V17     V30    10.0   1_454     S
V17     V31    10.0   1_455     S
V17     V29    10.0   1_455     S
V18     V24    10.0   1_545     S
V18     V20    10.0   .     S
V18     V29    10.0   1_455     S
V18     V32    10.0   1_455     S
V18     V30    10.0   1_455     S
V19     V23    10.0   1_545     S
V19     V30    10.0   1_454     S
V19     V22    10.0   1_544     S
V19     V24    10.0   1_544     S
V19     V10    10.0   1_554     S
V20     V24    10.0   1_545     S
V20     V29    10.0   1_455     S
V20     V21    10.0   1_545     S
V20     V23    10.0   1_545     S
V21     V25    10.0   1_455     S
V21     V23    10.0   .     S
V21     V20    10.0   1_565     S
V21     V28    10.0   1_455     S
V21     V26    10.0   1_455     S
V22     V26    10.0   1_455     S
V22     V24    10.0   .     S
V22     V19    10.0   1_566     S
V22     V27    10.0   1_456     S
V22     V25    10.0   1_456     S
V22     V15    10.0   1_556     S
V23     V17    10.0   1_565     S
V23     V19    10.0   1_565     S
V23     V25    10.0   1_455     S
V23     V20    10.0   1_565     S
V24     V18    10.0   1_565     S
V24     V20    10.0   1_565     S
V24     V26    10.0   1_455     S
V24     V19    10.0   1_566     S
V25     V23    10.0   1_655     S
V25     V21    10.0   1_655     S
V25     V22    10.0   1_654     S
V25     V31    10.0   1_565     S
V25     V27    10.0   .     S
V26     V24    10.0   1_655     S
V26     V22    10.0   1_655     S
V26     V21    10.0   1_655     S
V26     V32    10.0   1_565     S
V26     V28    10.0   .     S
V27     V22    10.0   1_654     S
V27     V31    10.0   1_565     S
V27     V30    10.0   1_564     S
V27     V32    10.0   1_564     S
V27     V2    10.0   1_554     S
V28     V21    10.0   1_655     S
V28     V32    10.0   1_565     S
V28     V29    10.0   1_565     S
V28     V31    10.0   1_565     S
V29     V20    10.0   1_655     S
V29     V18    10.0   1_655     S
V29     V28    10.0   1_545     S
V29     V31    10.0   .     S
V29     V17    10.0   1_655     S
V30     V19    10.0   1_656     S
V30     V17    10.0   1_656     S
V30     V27    10.0   1_546     S
V30     V32    10.0   .     S
V30     V18    10.0   1_655     S
V30     V7    10.0   1_556     S
V31     V25    10.0   1_545     S
V31     V27    10.0   1_545     S
V31     V28    10.0   1_545     S
V31     V17    10.0   1_655     S
V32     V26    10.0   1_545     S
V32     V28    10.0   1_545     S
V32     V27    10.0   1_546     S
V32     V18    10.0   1_655     S
