data_whv
_audit_creation_date              2019-12-31
_audit_creation_method            'Pymatgen'
_symmetry_space_group_name_H-M    'P1'
_symmetry_Int_Tables_number       1
loop_
_symmetry_equiv_pos_as_xyz
  x,y,z
_cell_length_a                    32.6039
_cell_length_b                    32.6039
_cell_length_c                    32.7712
_cell_angle_alpha                 90.0
_cell_angle_beta                 90.0
_cell_angle_gamma                 90.0
loop_
_atom_site_label
_atom_site_type_symbol
_atom_site_fract_x
_atom_site_fract_y
_atom_site_fract_z
V1     V     0.4378   0.9378   0.125
V2     V     0.4378   0.9378   0.625
V3     V     0.0622   0.0622   0.375
V4     V     0.0622   0.0622   0.875
V5     V     0.1878   0.8122   0.25
V6     V     0.1878   0.8122   0.75
V7     V     0.9378   0.9378   0.125
V8     V     0.9378   0.9378   0.625
V9     V     0.8122   0.1878   0.25
V10     V     0.8122   0.1878   0.75
V11     V     0.1878   0.3122   0.25
V12     V     0.1878   0.3122   0.75
V13     V     0.0622   0.5622   0.125
V14     V     0.0622   0.5622   0.625
V15     V     0.9378   0.4378   0.375
V16     V     0.9378   0.4378   0.875
V17     V     0.3122   0.6878   0.0
V18     V     0.3122   0.6878   0.5
V19     V     0.6878   0.3122   0.0
V20     V     0.6878   0.3122   0.5
V21     V     0.4378   0.4378   0.375
V22     V     0.4378   0.4378   0.875
V23     V     0.3122   0.1878   0.0
V24     V     0.3122   0.1878   0.5
V25     V     0.5622   0.0622   0.375
V26     V     0.5622   0.0622   0.875
V27     V     0.6878   0.8122   0.0
V28     V     0.6878   0.8122   0.5
V29     V     0.8122   0.6878   0.25
V30     V     0.8122   0.6878   0.75
V31     V     0.5622   0.5622   0.125
V32     V     0.5622   0.5622   0.625
loop_
_geom_bond_atom_site_label_1
_geom_bond_atom_site_label_2
_geom_bond_distance
_geom_bond_site_symmetry_2
_ccdc_geom_bond_type
V1     V27    10.0   .     S
V1     V5    10.0   .     S
V1     V23    10.0   1_565     S
V1     V26    10.0   1_564     S
V1     V17    10.0   .     S
V1     V25    10.0   1_565     S
V2     V28    10.0   .     S
V2     V6    10.0   .     S
V2     V24    10.0   1_565     S
V2     V25    10.0   1_565     S
V2     V18    10.0   .     S
V2     V26    10.0   1_565     S
V3     V5    10.0   1_545     S
V3     V9    10.0   1_455     S
V3     V7    10.0   1_445     S
V3     V24    10.0   .     S
V3     V11    10.0   .     S
V3     V8    10.0   1_445     S
V4     V6    10.0   1_545     S
V4     V10    10.0   1_455     S
V4     V8    10.0   1_445     S
V4     V23    10.0   1_556     S
V4     V12    10.0   .     S
V4     V7    10.0   1_446     S
V5     V3    10.0   1_565     S
V5     V7    10.0   1_455     S
V5     V17    10.0   .     S
V5     V13    10.0   .     S
V5     V18    10.0   .     S
V6     V4    10.0   1_565     S
V6     V8    10.0   1_455     S
V6     V18    10.0   .     S
V6     V14    10.0   .     S
V6     V17    10.0   1_556     S
V7     V3    10.0   1_665     S
V7     V5    10.0   1_655     S
V7     V9    10.0   1_565     S
V7     V29    10.0   .     S
V7     V27    10.0   .     S
V7     V4    10.0   1_664     S
V8     V4    10.0   1_665     S
V8     V6    10.0   1_655     S
V8     V10    10.0   1_565     S
V8     V30    10.0   .     S
V8     V28    10.0   .     S
V8     V3    10.0   1_665     S
V9     V3    10.0   1_655     S
V9     V7    10.0   1_545     S
V9     V15    10.0   .     S
V9     V20    10.0   .     S
V9     V25    10.0   .     S
V9     V19    10.0   .     S
V10     V4    10.0   1_655     S
V10     V8    10.0   1_545     S
V10     V16    10.0   .     S
V10     V19    10.0   1_556     S
V10     V26    10.0   .     S
V10     V20    10.0   .     S
V11     V13    10.0   .     S
V11     V15    10.0   1_455     S
V11     V24    10.0   .     S
V11     V21    10.0   .     S
V11     V23    10.0   .     S
V12     V14    10.0   .     S
V12     V16    10.0   1_455     S
V12     V23    10.0   1_556     S
V12     V22    10.0   .     S
V12     V24    10.0   .     S
V13     V17    10.0   .     S
V13     V15    10.0   1_455     S
V13     V29    10.0   1_455     S
V13     V16    10.0   1_454     S
V14     V18    10.0   .     S
V14     V16    10.0   1_455     S
V14     V30    10.0   1_455     S
V14     V15    10.0   1_455     S
V15     V11    10.0   1_655     S
V15     V20    10.0   .     S
V15     V13    10.0   1_655     S
V15     V29    10.0   .     S
V15     V14    10.0   1_655     S
V16     V12    10.0   1_655     S
V16     V19    10.0   1_556     S
V16     V14    10.0   1_655     S
V16     V30    10.0   .     S
V16     V13    10.0   1_656     S
V17     V31    10.0   .     S
V17     V22    10.0   1_554     S
V17     V6    10.0   1_554     S
V18     V32    10.0   .     S
V18     V21    10.0   .     S
V19     V26    10.0   1_554     S
V19     V10    10.0   1_554     S
V19     V31    10.0   .     S
V19     V22    10.0   1_554     S
V19     V16    10.0   1_554     S
V20     V25    10.0   .     S
V20     V32    10.0   .     S
V20     V21    10.0   .     S
V21     V24    10.0   .     S
V21     V32    10.0   .     S
V21     V31    10.0   .     S
V22     V23    10.0   1_556     S
V22     V17    10.0   1_556     S
V22     V19    10.0   1_556     S
V22     V31    10.0   1_556     S
V22     V32    10.0   .     S
V23     V22    10.0   1_554     S
V23     V12    10.0   1_554     S
V23     V1    10.0   1_545     S
V23     V26    10.0   1_554     S
V23     V4    10.0   1_554     S
V24     V2    10.0   1_545     S
V24     V25    10.0   .     S
V25     V28    10.0   1_545     S
V25     V2    10.0   1_545     S
V25     V1    10.0   1_545     S
V26     V19    10.0   1_556     S
V26     V23    10.0   1_556     S
V26     V27    10.0   1_546     S
V26     V1    10.0   1_546     S
V26     V2    10.0   1_545     S
V27     V29    10.0   .     S
V27     V31    10.0   .     S
V27     V26    10.0   1_564     S
V27     V30    10.0   1_554     S
V28     V30    10.0   .     S
V28     V32    10.0   .     S
V28     V25    10.0   1_565     S
V28     V29    10.0   .     S
V29     V31    10.0   .     S
V29     V13    10.0   1_655     S
V30     V32    10.0   .     S
V30     V14    10.0   1_655     S
V30     V27    10.0   1_556     S
V31     V22    10.0   1_554     S
