data_why
_audit_creation_date              2019-12-31
_audit_creation_method            'Pymatgen'
_symmetry_space_group_name_H-M    'P1'
_symmetry_Int_Tables_number       1
loop_
_symmetry_equiv_pos_as_xyz
  x,y,z
_cell_length_a                    29.863
_cell_length_b                    29.863
_cell_length_c                    38.113
_cell_angle_alpha                 90.0
_cell_angle_beta                 90.0
_cell_angle_gamma                 90.0
loop_
_atom_site_label
_atom_site_type_symbol
_atom_site_fract_x
_atom_site_fract_y
_atom_site_fract_z
V1     V     0.5652   0.0958   0.3447
V2     V     0.5652   0.0958   0.8447
V3     V     0.4348   0.9042   0.1553
V4     V     0.4348   0.9042   0.6553
V5     V     0.6542   0.8152   0.4697
V6     V     0.6542   0.8152   0.9697
V7     V     0.8458   0.6848   0.2803
V8     V     0.8458   0.6848   0.7803
V9     V     0.0652   0.0958   0.4053
V10     V     0.0652   0.0958   0.9053
V11     V     0.9348   0.9042   0.0947
V12     V     0.9348   0.9042   0.5947
V13     V     0.1542   0.8152   0.2803
V14     V     0.1542   0.8152   0.7803
V15     V     0.3458   0.6848   0.4697
V16     V     0.3458   0.6848   0.9697
V17     V     0.1542   0.3151   0.2197
V18     V     0.1542   0.3151   0.7197
V19     V     0.3458   0.1848   0.0303
V20     V     0.3458   0.1848   0.5303
V21     V     0.5652   0.5958   0.1553
V22     V     0.5652   0.5958   0.6553
V23     V     0.4348   0.4042   0.3447
V24     V     0.4348   0.4042   0.8447
V25     V     0.8458   0.1848   0.2197
V26     V     0.8458   0.1848   0.7197
V27     V     0.6542   0.3151   0.0303
V28     V     0.6542   0.3151   0.5303
V29     V     0.0652   0.5958   0.0947
V30     V     0.0652   0.5958   0.5947
V31     V     0.9348   0.4042   0.4053
V32     V     0.9348   0.4042   0.9053
loop_
_geom_bond_atom_site_label_1
_geom_bond_atom_site_label_2
_geom_bond_distance
_geom_bond_site_symmetry_2
_ccdc_geom_bond_type
V1     V25    10.0   .     S
V1     V28    10.0   .     S
V1     V3    10.0   1_545     S
V1     V5    10.0   1_545     S
V1     V20    10.0   .     S
V1     V23    10.0   .     S
V2     V26    10.0   .     S
V2     V27    10.0   1_556     S
V2     V4    10.0   1_545     S
V2     V6    10.0   1_545     S
V2     V19    10.0   1_556     S
V2     V24    10.0   .     S
V3     V13    10.0   .     S
V3     V16    10.0   1_554     S
V3     V1    10.0   1_565     S
V3     V6    10.0   1_554     S
V3     V19    10.0   1_565     S
V3     V21    10.0   .     S
V4     V14    10.0   .     S
V4     V15    10.0   .     S
V4     V2    10.0   1_565     S
V4     V5    10.0   .     S
V4     V20    10.0   1_565     S
V4     V22    10.0   .     S
V5     V1    10.0   1_565     S
V5     V7    10.0   .     S
V5     V12    10.0   .     S
V5     V22    10.0   .     S
V5     V15    10.0   .     S
V6     V2    10.0   1_565     S
V6     V3    10.0   1_556     S
V6     V8    10.0   .     S
V6     V11    10.0   1_556     S
V6     V21    10.0   1_556     S
V6     V16    10.0   .     S
V7     V31    10.0   .     S
V7     V29    10.0   1_655     S
V7     V11    10.0   .     S
V7     V21    10.0   .     S
V7     V13    10.0   1_655     S
V8     V32    10.0   .     S
V8     V30    10.0   1_655     S
V8     V12    10.0   .     S
V8     V22    10.0   .     S
V8     V14    10.0   1_655     S
V9     V20    10.0   .     S
V9     V17    10.0   .     S
V9     V12    10.0   1_445     S
V9     V13    10.0   1_545     S
V9     V25    10.0   1_455     S
V9     V31    10.0   1_455     S
V10     V19    10.0   1_556     S
V10     V18    10.0   .     S
V10     V11    10.0   1_446     S
V10     V14    10.0   1_545     S
V10     V26    10.0   1_455     S
V10     V32    10.0   1_455     S
V11     V6    10.0   1_554     S
V11     V10    10.0   1_664     S
V11     V13    10.0   1_655     S
V11     V25    10.0   1_565     S
V11     V29    10.0   1_655     S
V12     V9    10.0   1_665     S
V12     V14    10.0   1_655     S
V12     V26    10.0   1_565     S
V12     V30    10.0   1_655     S
V13     V9    10.0   1_565     S
V13     V11    10.0   1_455     S
V13     V15    10.0   .     S
V13     V29    10.0   .     S
V13     V7    10.0   1_455     S
V14     V10    10.0   1_565     S
V14     V12    10.0   1_455     S
V14     V16    10.0   .     S
V14     V30    10.0   .     S
V14     V8    10.0   1_455     S
V15     V23    10.0   .     S
V15     V22    10.0   .     S
V15     V30    10.0   .     S
V16     V3    10.0   1_556     S
V16     V24    10.0   .     S
V16     V21    10.0   1_556     S
V16     V29    10.0   1_556     S
V17     V29    10.0   .     S
V17     V31    10.0   1_455     S
V17     V19    10.0   .     S
V17     V23    10.0   .     S
V17     V25    10.0   1_455     S
V18     V30    10.0   .     S
V18     V32    10.0   1_455     S
V18     V20    10.0   .     S
V18     V24    10.0   .     S
V18     V26    10.0   1_455     S
V19     V10    10.0   1_554     S
V19     V3    10.0   1_545     S
V19     V2    10.0   1_554     S
V19     V24    10.0   1_554     S
V19     V27    10.0   .     S
V20     V4    10.0   1_545     S
V20     V23    10.0   .     S
V20     V28    10.0   .     S
V21     V16    10.0   1_554     S
V21     V6    10.0   1_554     S
V21     V23    10.0   .     S
V21     V27    10.0   .     S
V22     V24    10.0   .     S
V22     V28    10.0   .     S
V23     V28    10.0   .     S
V24     V19    10.0   1_556     S
V24     V27    10.0   1_556     S
V25     V11    10.0   1_545     S
V25     V9    10.0   1_655     S
V25     V27    10.0   .     S
V25     V31    10.0   .     S
V25     V17    10.0   1_655     S
V26     V12    10.0   1_545     S
V26     V10    10.0   1_655     S
V26     V28    10.0   .     S
V26     V32    10.0   .     S
V26     V18    10.0   1_655     S
V27     V2    10.0   1_554     S
V27     V24    10.0   1_554     S
V27     V32    10.0   1_554     S
V28     V31    10.0   .     S
V29     V7    10.0   1_455     S
V29     V16    10.0   1_554     S
V29     V32    10.0   1_454     S
V29     V11    10.0   1_455     S
V30     V8    10.0   1_455     S
V30     V31    10.0   1_455     S
V30     V12    10.0   1_455     S
V31     V17    10.0   1_655     S
V31     V30    10.0   1_655     S
V31     V9    10.0   1_655     S
V32     V18    10.0   1_655     S
V32     V27    10.0   1_556     S
V32     V29    10.0   1_656     S
V32     V10    10.0   1_655     S
