data_wib
_audit_creation_date              2019-12-31
_audit_creation_method            'Pymatgen'
_symmetry_space_group_name_H-M    'P1'
_symmetry_Int_Tables_number       1
loop_
_symmetry_equiv_pos_as_xyz
  x,y,z
_cell_length_a                    39.9998
_cell_length_b                    39.9998
_cell_length_c                    37.224
_cell_angle_alpha                 90.0
_cell_angle_beta                 90.0
_cell_angle_gamma                 90.0
loop_
_atom_site_label
_atom_site_type_symbol
_atom_site_fract_x
_atom_site_fract_y
_atom_site_fract_z
V1     V     0.4375   0.4833   0.2506
V2     V     0.4375   0.9833   0.2506
V3     V     0.9375   0.4833   0.2506
V4     V     0.9375   0.9833   0.2506
V5     V     0.1875   0.4833   0.2494
V6     V     0.1875   0.9833   0.2494
V7     V     0.6875   0.4833   0.2494
V8     V     0.6875   0.9833   0.2494
V9     V     0.3917   0.3125   0.4994
V10     V     0.3917   0.8125   0.4994
V11     V     0.8917   0.3125   0.4994
V12     V     0.8917   0.8125   0.4994
V13     V     0.3917   0.0625   0.5006
V14     V     0.3917   0.5625   0.5006
V15     V     0.8917   0.0625   0.5006
V16     V     0.8917   0.5625   0.5006
V17     V     0.1875   0.2333   0.7506
V18     V     0.1875   0.7333   0.7506
V19     V     0.6875   0.2333   0.7506
V20     V     0.6875   0.7333   0.7506
V21     V     0.4375   0.2333   0.7494
V22     V     0.4375   0.7333   0.7494
V23     V     0.9375   0.2333   0.7494
V24     V     0.9375   0.7333   0.7494
V25     V     0.1417   0.3125   0.0006
V26     V     0.1417   0.8125   0.0006
V27     V     0.6417   0.3125   0.0006
V28     V     0.6417   0.8125   0.0006
V29     V     0.1417   0.0625   0.9994
V30     V     0.1417   0.5625   0.9994
V31     V     0.6417   0.0625   0.9994
V32     V     0.6417   0.5625   0.9994
V33     V     0.1083   0.1875   0.5006
V34     V     0.1083   0.6875   0.5006
V35     V     0.6083   0.1875   0.5006
V36     V     0.6083   0.6875   0.5006
V37     V     0.1083   0.4375   0.4994
V38     V     0.1083   0.9375   0.4994
V39     V     0.6083   0.4375   0.4994
V40     V     0.6083   0.9375   0.4994
V41     V     0.3125   0.0167   0.7506
V42     V     0.3125   0.5167   0.7506
V43     V     0.8125   0.0167   0.7506
V44     V     0.8125   0.5167   0.7506
V45     V     0.0625   0.0167   0.7494
V46     V     0.0625   0.5167   0.7494
V47     V     0.5625   0.0167   0.7494
V48     V     0.5625   0.5167   0.7494
V49     V     0.0625   0.2667   0.2506
V50     V     0.0625   0.7667   0.2506
V51     V     0.5625   0.2667   0.2506
V52     V     0.5625   0.7667   0.2506
V53     V     0.3125   0.2667   0.2494
V54     V     0.3125   0.7667   0.2494
V55     V     0.8125   0.2667   0.2494
V56     V     0.8125   0.7667   0.2494
V57     V     0.3583   0.1875   0.9994
V58     V     0.3583   0.6875   0.9994
V59     V     0.8583   0.1875   0.9994
V60     V     0.8583   0.6875   0.9994
V61     V     0.3583   0.4375   0.0006
V62     V     0.3583   0.9375   0.0006
V63     V     0.8583   0.4375   0.0006
V64     V     0.8583   0.9375   0.0006
loop_
_geom_bond_atom_site_label_1
_geom_bond_atom_site_label_2
_geom_bond_distance
_geom_bond_site_symmetry_2
_ccdc_geom_bond_type
V1     V53    10.0   .     S
V1     V51    10.0   .     S
V1     V14    10.0   .     S
V1     V7    10.0   .     S
V1     V5    10.0   .     S
V1     V61    10.0   .     S
V2     V54    10.0   .     S
V2     V52    10.0   .     S
V2     V13    10.0   1_565     S
V2     V8    10.0   .     S
V2     V6    10.0   .     S
V2     V62    10.0   .     S
V3     V55    10.0   .     S
V3     V49    10.0   1_655     S
V3     V16    10.0   .     S
V3     V5    10.0   1_655     S
V3     V7    10.0   .     S
V3     V63    10.0   .     S
V4     V56    10.0   .     S
V4     V50    10.0   1_655     S
V4     V15    10.0   1_565     S
V4     V6    10.0   1_655     S
V4     V8    10.0   .     S
V4     V64    10.0   .     S
V5     V49    10.0   .     S
V5     V53    10.0   .     S
V5     V3    10.0   1_455     S
V5     V30    10.0   1_554     S
V5     V37    10.0   .     S
V6     V50    10.0   .     S
V6     V54    10.0   .     S
V6     V4    10.0   1_455     S
V6     V29    10.0   1_564     S
V6     V38    10.0   .     S
V7     V51    10.0   .     S
V7     V55    10.0   .     S
V7     V32    10.0   1_554     S
V7     V39    10.0   .     S
V8     V52    10.0   .     S
V8     V56    10.0   .     S
V8     V31    10.0   1_564     S
V8     V40    10.0   .     S
V9     V39    10.0   .     S
V9     V35    10.0   .     S
V9     V53    10.0   .     S
V9     V13    10.0   .     S
V9     V14    10.0   .     S
V9     V21    10.0   .     S
V10     V40    10.0   .     S
V10     V36    10.0   .     S
V10     V54    10.0   .     S
V10     V14    10.0   .     S
V10     V13    10.0   1_565     S
V10     V22    10.0   .     S
V11     V37    10.0   1_655     S
V11     V33    10.0   1_655     S
V11     V55    10.0   .     S
V11     V15    10.0   .     S
V11     V16    10.0   .     S
V11     V23    10.0   .     S
V12     V38    10.0   1_655     S
V12     V34    10.0   1_655     S
V12     V56    10.0   .     S
V12     V16    10.0   .     S
V12     V15    10.0   1_565     S
V12     V24    10.0   .     S
V13     V40    10.0   1_545     S
V13     V35    10.0   .     S
V13     V2    10.0   1_545     S
V13     V41    10.0   .     S
V13     V10    10.0   1_545     S
V14     V39    10.0   .     S
V14     V36    10.0   .     S
V14     V42    10.0   .     S
V15     V38    10.0   1_645     S
V15     V33    10.0   1_655     S
V15     V4    10.0   1_545     S
V15     V43    10.0   .     S
V15     V12    10.0   1_545     S
V16     V37    10.0   1_655     S
V16     V34    10.0   1_655     S
V16     V44    10.0   .     S
V17     V45    10.0   .     S
V17     V41    10.0   .     S
V17     V25    10.0   1_556     S
V17     V21    10.0   .     S
V17     V23    10.0   1_455     S
V17     V33    10.0   .     S
V18     V46    10.0   .     S
V18     V42    10.0   .     S
V18     V26    10.0   1_556     S
V18     V22    10.0   .     S
V18     V24    10.0   1_455     S
V18     V34    10.0   .     S
V19     V47    10.0   .     S
V19     V43    10.0   .     S
V19     V27    10.0   1_556     S
V19     V23    10.0   .     S
V19     V21    10.0   .     S
V19     V35    10.0   .     S
V20     V48    10.0   .     S
V20     V44    10.0   .     S
V20     V28    10.0   1_556     S
V20     V24    10.0   .     S
V20     V22    10.0   .     S
V20     V36    10.0   .     S
V21     V41    10.0   .     S
V21     V47    10.0   .     S
V21     V57    10.0   .     S
V22     V42    10.0   .     S
V22     V48    10.0   .     S
V22     V58    10.0   .     S
V23     V43    10.0   .     S
V23     V45    10.0   1_655     S
V23     V17    10.0   1_655     S
V23     V59    10.0   .     S
V24     V44    10.0   .     S
V24     V46    10.0   1_655     S
V24     V18    10.0   1_655     S
V24     V60    10.0   .     S
V25     V61    10.0   .     S
V25     V57    10.0   1_554     S
V25     V17    10.0   1_554     S
V25     V49    10.0   .     S
V25     V29    10.0   1_554     S
V25     V30    10.0   1_554     S
V26     V62    10.0   .     S
V26     V58    10.0   1_554     S
V26     V18    10.0   1_554     S
V26     V50    10.0   .     S
V26     V30    10.0   1_554     S
V26     V29    10.0   1_564     S
V27     V63    10.0   .     S
V27     V59    10.0   1_554     S
V27     V19    10.0   1_554     S
V27     V51    10.0   .     S
V27     V31    10.0   1_554     S
V27     V32    10.0   1_554     S
V28     V64    10.0   .     S
V28     V60    10.0   1_554     S
V28     V20    10.0   1_554     S
V28     V52    10.0   .     S
V28     V32    10.0   1_554     S
V28     V31    10.0   1_564     S
V29     V62    10.0   1_546     S
V29     V57    10.0   .     S
V29     V6    10.0   1_546     S
V29     V25    10.0   1_556     S
V29     V45    10.0   .     S
V29     V26    10.0   1_546     S
V30     V61    10.0   1_556     S
V30     V58    10.0   .     S
V30     V5    10.0   1_556     S
V30     V26    10.0   1_556     S
V30     V46    10.0   .     S
V30     V25    10.0   1_556     S
V31     V64    10.0   1_546     S
V31     V59    10.0   .     S
V31     V8    10.0   1_546     S
V31     V27    10.0   1_556     S
V31     V47    10.0   .     S
V31     V28    10.0   1_546     S
V32     V63    10.0   1_556     S
V32     V60    10.0   .     S
V32     V7    10.0   1_556     S
V32     V28    10.0   1_556     S
V32     V48    10.0   .     S
V32     V27    10.0   1_556     S
V33     V15    10.0   1_455     S
V33     V11    10.0   1_455     S
V33     V37    10.0   .     S
V33     V38    10.0   1_545     S
V33     V49    10.0   .     S
V34     V16    10.0   1_455     S
V34     V12    10.0   1_455     S
V34     V38    10.0   .     S
V34     V37    10.0   .     S
V34     V50    10.0   .     S
V35     V39    10.0   .     S
V35     V40    10.0   1_545     S
V35     V51    10.0   .     S
V36     V40    10.0   .     S
V36     V39    10.0   .     S
V36     V52    10.0   .     S
V37     V16    10.0   1_455     S
V37     V11    10.0   1_455     S
V37     V46    10.0   .     S
V38     V15    10.0   1_465     S
V38     V12    10.0   1_455     S
V38     V33    10.0   1_565     S
V38     V45    10.0   1_565     S
V39     V48    10.0   .     S
V40     V13    10.0   1_565     S
V40     V35    10.0   1_565     S
V40     V47    10.0   1_565     S
V41     V62    10.0   1_546     S
V41     V45    10.0   .     S
V41     V47    10.0   .     S
V42     V61    10.0   1_556     S
V42     V46    10.0   .     S
V42     V48    10.0   .     S
V43     V64    10.0   1_546     S
V43     V47    10.0   .     S
V43     V45    10.0   1_655     S
V44     V63    10.0   1_556     S
V44     V48    10.0   .     S
V44     V46    10.0   1_655     S
V45     V23    10.0   1_455     S
V45     V38    10.0   1_545     S
V45     V43    10.0   1_455     S
V46     V24    10.0   1_455     S
V46     V44    10.0   1_455     S
V47     V40    10.0   1_545     S
V49     V3    10.0   1_455     S
V49     V55    10.0   1_455     S
V49     V53    10.0   .     S
V50     V4    10.0   1_455     S
V50     V56    10.0   1_455     S
V50     V54    10.0   .     S
V51     V53    10.0   .     S
V51     V55    10.0   .     S
V52     V54    10.0   .     S
V52     V56    10.0   .     S
V53     V57    10.0   1_554     S
V54     V58    10.0   1_554     S
V55     V49    10.0   1_655     S
V55     V59    10.0   1_554     S
V56     V50    10.0   1_655     S
V56     V60    10.0   1_554     S
V57     V25    10.0   1_556     S
V57     V53    10.0   1_556     S
V57     V61    10.0   1_556     S
V57     V62    10.0   1_546     S
V58     V26    10.0   1_556     S
V58     V54    10.0   1_556     S
V58     V62    10.0   1_556     S
V58     V61    10.0   1_556     S
V59     V27    10.0   1_556     S
V59     V55    10.0   1_556     S
V59     V63    10.0   1_556     S
V59     V64    10.0   1_546     S
V60     V28    10.0   1_556     S
V60     V56    10.0   1_556     S
V60     V64    10.0   1_556     S
V60     V63    10.0   1_556     S
V61     V30    10.0   1_554     S
V61     V42    10.0   1_554     S
V61     V57    10.0   1_554     S
V61     V58    10.0   1_554     S
V62     V29    10.0   1_564     S
V62     V41    10.0   1_564     S
V62     V58    10.0   1_554     S
V62     V57    10.0   1_564     S
V63     V32    10.0   1_554     S
V63     V44    10.0   1_554     S
V63     V59    10.0   1_554     S
V63     V60    10.0   1_554     S
V64     V31    10.0   1_564     S
V64     V43    10.0   1_564     S
V64     V60    10.0   1_554     S
V64     V59    10.0   1_564     S
