data_wid
_audit_creation_date              2019-12-31
_audit_creation_method            'Pymatgen'
_symmetry_space_group_name_H-M    'P1'
_symmetry_Int_Tables_number       1
loop_
_symmetry_equiv_pos_as_xyz
  x,y,z
_cell_length_a                    34.8146
_cell_length_b                    34.8146
_cell_length_c                    45.3013
_cell_angle_alpha                 90.0
_cell_angle_beta                 90.0
_cell_angle_gamma                 90.0
loop_
_atom_site_label
_atom_site_type_symbol
_atom_site_fract_x
_atom_site_fract_y
_atom_site_fract_z
V1     V     0.3676   0.4575   0.9456
V2     V     0.3676   0.9575   0.9456
V3     V     0.8676   0.4575   0.9456
V4     V     0.8676   0.9575   0.9456
V5     V     0.4175   0.2426   0.8044
V6     V     0.4175   0.7426   0.8044
V7     V     0.9175   0.2426   0.8044
V8     V     0.9175   0.7426   0.8044
V9     V     0.1324   0.2925   0.9456
V10     V     0.1324   0.7925   0.9456
V11     V     0.6324   0.2925   0.9456
V12     V     0.6324   0.7925   0.9456
V13     V     0.0825   0.0074   0.8044
V14     V     0.0825   0.5074   0.8044
V15     V     0.5825   0.0074   0.8044
V16     V     0.5825   0.5074   0.8044
V17     V     0.1176   0.4575   0.5544
V18     V     0.1176   0.9575   0.5544
V19     V     0.6176   0.4575   0.5544
V20     V     0.6176   0.9575   0.5544
V21     V     0.1675   0.2426   0.6956
V22     V     0.1675   0.7426   0.6956
V23     V     0.6675   0.2426   0.6956
V24     V     0.6675   0.7426   0.6956
V25     V     0.3824   0.2925   0.5544
V26     V     0.3824   0.7925   0.5544
V27     V     0.8824   0.2925   0.5544
V28     V     0.8824   0.7925   0.5544
V29     V     0.3325   0.0074   0.6956
V30     V     0.3325   0.5074   0.6956
V31     V     0.8325   0.0074   0.6956
V32     V     0.8325   0.5074   0.6956
V33     V     0.3824   0.0425   0.4456
V34     V     0.3824   0.5425   0.4456
V35     V     0.8824   0.0425   0.4456
V36     V     0.8824   0.5425   0.4456
V37     V     0.1176   0.2075   0.4456
V38     V     0.1176   0.7075   0.4456
V39     V     0.6176   0.2075   0.4456
V40     V     0.6176   0.7075   0.4456
V41     V     0.3325   0.2574   0.3044
V42     V     0.3325   0.7574   0.3044
V43     V     0.8325   0.2574   0.3044
V44     V     0.8325   0.7574   0.3044
V45     V     0.1675   0.4926   0.3043
V46     V     0.1675   0.9926   0.3043
V47     V     0.6675   0.4926   0.3043
V48     V     0.6675   0.9926   0.3043
V49     V     0.3676   0.2075   0.0543
V50     V     0.3676   0.7075   0.0543
V51     V     0.8676   0.2075   0.0543
V52     V     0.8676   0.7075   0.0543
V53     V     0.4175   0.4926   0.1957
V54     V     0.4175   0.9926   0.1957
V55     V     0.9175   0.4926   0.1957
V56     V     0.9175   0.9926   0.1957
V57     V     0.1324   0.0425   0.0544
V58     V     0.1324   0.5425   0.0544
V59     V     0.6324   0.0425   0.0544
V60     V     0.6324   0.5425   0.0544
V61     V     0.0825   0.2574   0.1957
V62     V     0.0825   0.7574   0.1957
V63     V     0.5825   0.2574   0.1957
V64     V     0.5825   0.7574   0.1957
loop_
_geom_bond_atom_site_label_1
_geom_bond_atom_site_label_2
_geom_bond_distance
_geom_bond_site_symmetry_2
_ccdc_geom_bond_type
V1     V5    10.0   .     S
V1     V16    10.0   .     S
V1     V9    10.0   .     S
V1     V50    10.0   1_556     S
V1     V58    10.0   1_556     S
V1     V49    10.0   1_556     S
V2     V6    10.0   .     S
V2     V15    10.0   1_565     S
V2     V10    10.0   .     S
V2     V49    10.0   1_566     S
V2     V57    10.0   1_566     S
V2     V50    10.0   1_556     S
V3     V7    10.0   .     S
V3     V14    10.0   1_655     S
V3     V11    10.0   .     S
V3     V52    10.0   1_556     S
V3     V60    10.0   1_556     S
V3     V51    10.0   1_556     S
V4     V8    10.0   .     S
V4     V13    10.0   1_665     S
V4     V12    10.0   .     S
V4     V51    10.0   1_566     S
V4     V59    10.0   1_566     S
V4     V52    10.0   1_556     S
V5     V21    10.0   .     S
V5     V29    10.0   .     S
V5     V11    10.0   .     S
V5     V15    10.0   .     S
V5     V23    10.0   .     S
V6     V22    10.0   .     S
V6     V30    10.0   .     S
V6     V12    10.0   .     S
V6     V16    10.0   .     S
V6     V24    10.0   .     S
V7     V23    10.0   .     S
V7     V31    10.0   .     S
V7     V9    10.0   1_655     S
V7     V13    10.0   1_655     S
V7     V21    10.0   1_655     S
V8     V24    10.0   .     S
V8     V32    10.0   .     S
V8     V10    10.0   1_655     S
V8     V14    10.0   1_655     S
V8     V22    10.0   1_655     S
V9     V14    10.0   .     S
V9     V7    10.0   1_455     S
V9     V58    10.0   1_556     S
V9     V49    10.0   1_556     S
V9     V57    10.0   1_556     S
V10     V13    10.0   1_565     S
V10     V8    10.0   1_455     S
V10     V57    10.0   1_566     S
V10     V50    10.0   1_556     S
V10     V58    10.0   1_556     S
V11     V16    10.0   .     S
V11     V60    10.0   1_556     S
V11     V51    10.0   1_556     S
V11     V59    10.0   1_556     S
V12     V15    10.0   1_565     S
V12     V59    10.0   1_566     S
V12     V52    10.0   1_556     S
V12     V60    10.0   1_556     S
V13     V31    10.0   1_455     S
V13     V4    10.0   1_445     S
V13     V10    10.0   1_545     S
V13     V7    10.0   1_455     S
V13     V29    10.0   .     S
V13     V21    10.0   .     S
V14     V32    10.0   1_455     S
V14     V3    10.0   1_455     S
V14     V8    10.0   1_455     S
V14     V30    10.0   .     S
V14     V22    10.0   .     S
V15     V29    10.0   .     S
V15     V2    10.0   1_545     S
V15     V12    10.0   1_545     S
V15     V31    10.0   .     S
V15     V23    10.0   .     S
V16     V30    10.0   .     S
V16     V32    10.0   .     S
V16     V24    10.0   .     S
V17     V21    10.0   .     S
V17     V30    10.0   .     S
V17     V27    10.0   1_455     S
V17     V37    10.0   .     S
V17     V36    10.0   1_455     S
V17     V38    10.0   .     S
V18     V22    10.0   .     S
V18     V29    10.0   1_565     S
V18     V28    10.0   1_455     S
V18     V38    10.0   .     S
V18     V35    10.0   1_465     S
V18     V37    10.0   1_565     S
V19     V23    10.0   .     S
V19     V32    10.0   .     S
V19     V25    10.0   .     S
V19     V39    10.0   .     S
V19     V34    10.0   .     S
V19     V40    10.0   .     S
V20     V24    10.0   .     S
V20     V31    10.0   1_565     S
V20     V26    10.0   .     S
V20     V40    10.0   .     S
V20     V33    10.0   1_565     S
V20     V39    10.0   1_565     S
V21     V25    10.0   .     S
V21     V29    10.0   .     S
V21     V7    10.0   1_455     S
V22     V26    10.0   .     S
V22     V30    10.0   .     S
V22     V8    10.0   1_455     S
V23     V27    10.0   .     S
V23     V31    10.0   .     S
V24     V28    10.0   .     S
V24     V32    10.0   .     S
V25     V30    10.0   .     S
V25     V39    10.0   .     S
V25     V33    10.0   .     S
V25     V34    10.0   .     S
V26     V29    10.0   1_565     S
V26     V40    10.0   .     S
V26     V34    10.0   .     S
V26     V33    10.0   1_565     S
V27     V32    10.0   .     S
V27     V17    10.0   1_655     S
V27     V37    10.0   1_655     S
V27     V35    10.0   .     S
V27     V36    10.0   .     S
V28     V31    10.0   1_565     S
V28     V18    10.0   1_655     S
V28     V38    10.0   1_655     S
V28     V36    10.0   .     S
V28     V35    10.0   1_565     S
V29     V26    10.0   1_545     S
V29     V18    10.0   1_545     S
V31     V13    10.0   1_655     S
V31     V28    10.0   1_545     S
V31     V20    10.0   1_545     S
V32     V14    10.0   1_655     S
V33     V26    10.0   1_545     S
V33     V20    10.0   1_545     S
V33     V46    10.0   1_545     S
V33     V41    10.0   .     S
V33     V39    10.0   .     S
V34     V45    10.0   .     S
V34     V42    10.0   .     S
V34     V40    10.0   .     S
V35     V28    10.0   1_545     S
V35     V18    10.0   1_645     S
V35     V48    10.0   1_545     S
V35     V43    10.0   .     S
V35     V37    10.0   1_655     S
V36     V17    10.0   1_655     S
V36     V47    10.0   .     S
V36     V44    10.0   .     S
V36     V38    10.0   1_655     S
V37     V27    10.0   1_455     S
V37     V18    10.0   1_545     S
V37     V46    10.0   1_545     S
V37     V41    10.0   .     S
V37     V35    10.0   1_455     S
V38     V28    10.0   1_455     S
V38     V45    10.0   .     S
V38     V42    10.0   .     S
V38     V36    10.0   1_455     S
V39     V20    10.0   1_545     S
V39     V48    10.0   1_545     S
V39     V43    10.0   .     S
V40     V47    10.0   .     S
V40     V44    10.0   .     S
V41     V63    10.0   .     S
V41     V53    10.0   .     S
V41     V45    10.0   .     S
V41     V61    10.0   .     S
V42     V64    10.0   .     S
V42     V54    10.0   .     S
V42     V46    10.0   .     S
V42     V62    10.0   .     S
V43     V61    10.0   1_655     S
V43     V55    10.0   .     S
V43     V47    10.0   .     S
V43     V63    10.0   .     S
V44     V62    10.0   1_655     S
V44     V56    10.0   .     S
V44     V48    10.0   .     S
V44     V64    10.0   .     S
V45     V53    10.0   .     S
V45     V61    10.0   .     S
V45     V55    10.0   1_455     S
V46     V54    10.0   .     S
V46     V33    10.0   1_565     S
V46     V37    10.0   1_565     S
V46     V62    10.0   .     S
V46     V56    10.0   1_455     S
V47     V55    10.0   .     S
V47     V63    10.0   .     S
V47     V53    10.0   .     S
V48     V56    10.0   .     S
V48     V35    10.0   1_565     S
V48     V39    10.0   1_565     S
V48     V64    10.0   .     S
V48     V54    10.0   .     S
V49     V2    10.0   1_544     S
V49     V63    10.0   .     S
V49     V54    10.0   1_545     S
V49     V57    10.0   .     S
V49     V1    10.0   1_554     S
V49     V9    10.0   1_554     S
V50     V1    10.0   1_554     S
V50     V64    10.0   .     S
V50     V53    10.0   .     S
V50     V58    10.0   .     S
V50     V2    10.0   1_554     S
V50     V10    10.0   1_554     S
V51     V4    10.0   1_544     S
V51     V61    10.0   1_655     S
V51     V56    10.0   1_545     S
V51     V59    10.0   .     S
V51     V3    10.0   1_554     S
V51     V11    10.0   1_554     S
V52     V3    10.0   1_554     S
V52     V62    10.0   1_655     S
V52     V55    10.0   .     S
V52     V60    10.0   .     S
V52     V4    10.0   1_554     S
V52     V12    10.0   1_554     S
V53     V60    10.0   .     S
V53     V63    10.0   .     S
V54     V49    10.0   1_565     S
V54     V59    10.0   1_565     S
V54     V64    10.0   .     S
V55     V45    10.0   1_655     S
V55     V58    10.0   1_655     S
V55     V61    10.0   1_655     S
V56     V46    10.0   1_655     S
V56     V51    10.0   1_565     S
V56     V57    10.0   1_665     S
V56     V62    10.0   1_655     S
V57     V2    10.0   1_544     S
V57     V10    10.0   1_544     S
V57     V61    10.0   .     S
V57     V56    10.0   1_445     S
V57     V9    10.0   1_554     S
V58     V1    10.0   1_554     S
V58     V9    10.0   1_554     S
V58     V62    10.0   .     S
V58     V55    10.0   1_455     S
V58     V10    10.0   1_554     S
V59     V4    10.0   1_544     S
V59     V12    10.0   1_544     S
V59     V63    10.0   .     S
V59     V54    10.0   1_545     S
V59     V11    10.0   1_554     S
V60     V3    10.0   1_554     S
V60     V11    10.0   1_554     S
V60     V64    10.0   .     S
V60     V12    10.0   1_554     S
V61     V43    10.0   1_455     S
V61     V51    10.0   1_455     S
V61     V55    10.0   1_455     S
V62     V44    10.0   1_455     S
V62     V52    10.0   1_455     S
V62     V56    10.0   1_455     S
