data_wie
_audit_creation_date              2019-12-31
_audit_creation_method            'Pymatgen'
_symmetry_space_group_name_H-M    'P1'
_symmetry_Int_Tables_number       1
loop_
_symmetry_equiv_pos_as_xyz
  x,y,z
_cell_length_a                    35.2302
_cell_length_b                    35.2302
_cell_length_c                    45.0414
_cell_angle_alpha                 90.0
_cell_angle_beta                 90.0
_cell_angle_gamma                 90.0
loop_
_atom_site_label
_atom_site_type_symbol
_atom_site_fract_x
_atom_site_fract_y
_atom_site_fract_z
V1     V     0.3996   0.0246   0.4239
V2     V     0.3996   0.5246   0.4239
V3     V     0.8996   0.0246   0.4239
V4     V     0.8996   0.5246   0.4239
V5     V     0.1004   0.4754   0.5761
V6     V     0.1004   0.9754   0.5761
V7     V     0.6004   0.4754   0.5761
V8     V     0.6004   0.9754   0.5761
V9     V     0.3996   0.2746   0.5761
V10     V     0.3996   0.7746   0.5761
V11     V     0.8996   0.2746   0.5761
V12     V     0.8996   0.7746   0.5761
V13     V     0.1004   0.2254   0.4239
V14     V     0.1004   0.7254   0.4239
V15     V     0.6004   0.2254   0.4239
V16     V     0.6004   0.7254   0.4239
V17     V     0.1496   0.2254   0.6739
V18     V     0.1496   0.7254   0.6739
V19     V     0.6496   0.2254   0.6739
V20     V     0.6496   0.7254   0.6739
V21     V     0.1004   0.0246   0.8261
V22     V     0.1004   0.5246   0.8261
V23     V     0.6004   0.0246   0.8261
V24     V     0.6004   0.5246   0.8261
V25     V     0.3504   0.0246   0.6739
V26     V     0.3504   0.5246   0.6739
V27     V     0.8504   0.0246   0.6739
V28     V     0.8504   0.5246   0.6739
V29     V     0.3996   0.2254   0.8261
V30     V     0.3996   0.7254   0.8261
V31     V     0.8996   0.2254   0.8261
V32     V     0.8996   0.7254   0.8261
V33     V     0.1004   0.2746   0.1739
V34     V     0.1004   0.7746   0.1739
V35     V     0.6004   0.2746   0.1739
V36     V     0.6004   0.7746   0.1739
V37     V     0.1496   0.4754   0.3261
V38     V     0.1496   0.9754   0.3261
V39     V     0.6496   0.4754   0.3261
V40     V     0.6496   0.9754   0.3261
V41     V     0.3504   0.2746   0.3261
V42     V     0.3504   0.7746   0.3261
V43     V     0.8504   0.2746   0.3261
V44     V     0.8504   0.7746   0.3261
V45     V     0.3996   0.4754   0.1739
V46     V     0.3996   0.9754   0.1739
V47     V     0.8996   0.4754   0.1739
V48     V     0.8996   0.9754   0.1739
V49     V     0.3504   0.2254   0.0761
V50     V     0.3504   0.7254   0.0761
V51     V     0.8504   0.2254   0.0761
V52     V     0.8504   0.7254   0.0761
V53     V     0.1496   0.2746   0.9239
V54     V     0.1496   0.7746   0.9239
V55     V     0.6496   0.2746   0.9239
V56     V     0.6496   0.7746   0.9239
V57     V     0.1496   0.0246   0.0761
V58     V     0.1496   0.5246   0.0761
V59     V     0.6496   0.0246   0.0761
V60     V     0.6496   0.5246   0.0761
V61     V     0.3504   0.4754   0.9239
V62     V     0.3504   0.9754   0.9239
V63     V     0.8504   0.4754   0.9239
V64     V     0.8504   0.9754   0.9239
loop_
_geom_bond_atom_site_label_1
_geom_bond_atom_site_label_2
_geom_bond_distance
_geom_bond_site_symmetry_2
_ccdc_geom_bond_type
V1     V40    10.0   1_545     S
V1     V38    10.0   1_545     S
V1     V42    10.0   1_545     S
V1     V8    10.0   1_545     S
V1     V15    10.0   .     S
V1     V41    10.0   .     S
V2     V39    10.0   .     S
V2     V37    10.0   .     S
V2     V41    10.0   .     S
V2     V7    10.0   .     S
V2     V16    10.0   .     S
V2     V42    10.0   .     S
V3     V38    10.0   1_645     S
V3     V40    10.0   1_545     S
V3     V44    10.0   1_545     S
V3     V6    10.0   1_645     S
V3     V13    10.0   1_655     S
V3     V43    10.0   .     S
V4     V37    10.0   1_655     S
V4     V39    10.0   .     S
V4     V43    10.0   .     S
V4     V5    10.0   1_655     S
V4     V14    10.0   1_655     S
V4     V44    10.0   .     S
V5     V28    10.0   1_455     S
V5     V4    10.0   1_455     S
V5     V11    10.0   1_455     S
V5     V26    10.0   .     S
V5     V18    10.0   .     S
V5     V17    10.0   .     S
V6     V27    10.0   1_465     S
V6     V3    10.0   1_465     S
V6     V12    10.0   1_455     S
V6     V25    10.0   1_565     S
V6     V17    10.0   1_565     S
V6     V18    10.0   .     S
V7     V26    10.0   .     S
V7     V9    10.0   .     S
V7     V28    10.0   .     S
V7     V20    10.0   .     S
V7     V19    10.0   .     S
V8     V25    10.0   1_565     S
V8     V1    10.0   1_565     S
V8     V10    10.0   .     S
V8     V27    10.0   1_565     S
V8     V19    10.0   1_565     S
V8     V20    10.0   .     S
V9     V26    10.0   .     S
V9     V15    10.0   .     S
V9     V17    10.0   .     S
V9     V25    10.0   .     S
V9     V19    10.0   .     S
V10     V25    10.0   1_565     S
V10     V16    10.0   .     S
V10     V18    10.0   .     S
V10     V26    10.0   .     S
V10     V20    10.0   .     S
V11     V28    10.0   .     S
V11     V13    10.0   1_655     S
V11     V5    10.0   1_655     S
V11     V19    10.0   .     S
V11     V27    10.0   .     S
V11     V17    10.0   1_655     S
V12     V27    10.0   1_565     S
V12     V14    10.0   1_655     S
V12     V6    10.0   1_655     S
V12     V20    10.0   .     S
V12     V28    10.0   .     S
V12     V18    10.0   1_655     S
V13     V38    10.0   1_545     S
V13     V11    10.0   1_455     S
V13     V3    10.0   1_455     S
V13     V41    10.0   .     S
V13     V37    10.0   .     S
V13     V43    10.0   1_455     S
V14     V37    10.0   .     S
V14     V12    10.0   1_455     S
V14     V4    10.0   1_455     S
V14     V42    10.0   .     S
V14     V38    10.0   .     S
V14     V44    10.0   1_455     S
V15     V40    10.0   1_545     S
V15     V43    10.0   .     S
V15     V39    10.0   .     S
V15     V41    10.0   .     S
V16     V39    10.0   .     S
V16     V44    10.0   .     S
V16     V40    10.0   .     S
V16     V42    10.0   .     S
V17     V6    10.0   1_545     S
V17     V11    10.0   1_455     S
V17     V21    10.0   .     S
V17     V25    10.0   .     S
V18     V12    10.0   1_455     S
V18     V22    10.0   .     S
V18     V26    10.0   .     S
V19     V8    10.0   1_545     S
V19     V23    10.0   .     S
V19     V27    10.0   .     S
V20     V24    10.0   .     S
V20     V28    10.0   .     S
V21     V54    10.0   1_545     S
V21     V62    10.0   1_545     S
V21     V64    10.0   1_445     S
V21     V31    10.0   1_455     S
V21     V53    10.0   .     S
V22     V53    10.0   .     S
V22     V61    10.0   .     S
V22     V63    10.0   1_455     S
V22     V32    10.0   1_455     S
V22     V54    10.0   .     S
V23     V56    10.0   1_545     S
V23     V64    10.0   1_545     S
V23     V62    10.0   1_545     S
V23     V29    10.0   .     S
V23     V55    10.0   .     S
V24     V55    10.0   .     S
V24     V63    10.0   .     S
V24     V61    10.0   .     S
V24     V30    10.0   .     S
V24     V56    10.0   .     S
V25     V10    10.0   1_545     S
V25     V8    10.0   1_545     S
V25     V6    10.0   1_545     S
V25     V29    10.0   .     S
V26     V30    10.0   .     S
V27     V12    10.0   1_545     S
V27     V6    10.0   1_645     S
V27     V8    10.0   1_545     S
V27     V31    10.0   .     S
V28     V5    10.0   1_655     S
V28     V32    10.0   .     S
V29     V61    10.0   .     S
V29     V53    10.0   .     S
V29     V62    10.0   1_545     S
V29     V55    10.0   .     S
V30     V62    10.0   .     S
V30     V54    10.0   .     S
V30     V61    10.0   .     S
V30     V56    10.0   .     S
V31     V63    10.0   .     S
V31     V55    10.0   .     S
V31     V64    10.0   1_545     S
V31     V21    10.0   1_655     S
V31     V53    10.0   1_655     S
V32     V64    10.0   .     S
V32     V56    10.0   .     S
V32     V63    10.0   .     S
V32     V22    10.0   1_655     S
V32     V54    10.0   1_655     S
V33     V51    10.0   1_455     S
V33     V57    10.0   .     S
V33     V49    10.0   .     S
V33     V37    10.0   .     S
V33     V47    10.0   1_455     S
V33     V58    10.0   .     S
V34     V52    10.0   1_455     S
V34     V58    10.0   .     S
V34     V50    10.0   .     S
V34     V38    10.0   .     S
V34     V48    10.0   1_455     S
V34     V57    10.0   1_565     S
V35     V49    10.0   .     S
V35     V59    10.0   .     S
V35     V51    10.0   .     S
V35     V39    10.0   .     S
V35     V45    10.0   .     S
V35     V60    10.0   .     S
V36     V50    10.0   .     S
V36     V60    10.0   .     S
V36     V52    10.0   .     S
V36     V40    10.0   .     S
V36     V46    10.0   .     S
V36     V59    10.0   1_565     S
V37     V4    10.0   1_455     S
V37     V41    10.0   .     S
V38     V13    10.0   1_565     S
V38     V3    10.0   1_465     S
V38     V1    10.0   1_565     S
V38     V42    10.0   .     S
V39     V43    10.0   .     S
V40     V15    10.0   1_565     S
V40     V1    10.0   1_565     S
V40     V3    10.0   1_565     S
V40     V44    10.0   .     S
V41     V45    10.0   .     S
V42     V1    10.0   1_565     S
V42     V46    10.0   .     S
V43     V13    10.0   1_655     S
V43     V47    10.0   .     S
V44     V3    10.0   1_565     S
V44     V14    10.0   1_655     S
V44     V48    10.0   .     S
V45     V50    10.0   .     S
V45     V58    10.0   .     S
V45     V49    10.0   .     S
V45     V60    10.0   .     S
V46     V49    10.0   1_565     S
V46     V57    10.0   1_565     S
V46     V50    10.0   .     S
V46     V59    10.0   1_565     S
V47     V52    10.0   .     S
V47     V60    10.0   .     S
V47     V51    10.0   .     S
V47     V33    10.0   1_655     S
V47     V58    10.0   1_655     S
V48     V51    10.0   1_565     S
V48     V59    10.0   1_565     S
V48     V52    10.0   .     S
V48     V34    10.0   1_655     S
V48     V57    10.0   1_665     S
V49     V46    10.0   1_545     S
V49     V53    10.0   1_554     S
V49     V57    10.0   .     S
V50     V54    10.0   1_554     S
V50     V58    10.0   .     S
V51     V48    10.0   1_545     S
V51     V33    10.0   1_655     S
V51     V55    10.0   1_554     S
V51     V59    10.0   .     S
V52     V34    10.0   1_655     S
V52     V56    10.0   1_554     S
V52     V60    10.0   .     S
V53     V31    10.0   1_455     S
V53     V49    10.0   1_556     S
V53     V61    10.0   .     S
V54     V21    10.0   1_565     S
V54     V32    10.0   1_455     S
V54     V50    10.0   1_556     S
V54     V62    10.0   .     S
V55     V51    10.0   1_556     S
V55     V63    10.0   .     S
V56     V23    10.0   1_565     S
V56     V52    10.0   1_556     S
V56     V64    10.0   .     S
V57     V46    10.0   1_545     S
V57     V48    10.0   1_445     S
V57     V34    10.0   1_545     S
V57     V62    10.0   1_544     S
V58     V47    10.0   1_455     S
V58     V61    10.0   1_554     S
V59     V48    10.0   1_545     S
V59     V46    10.0   1_545     S
V59     V36    10.0   1_545     S
V59     V64    10.0   1_544     S
V60     V63    10.0   1_554     S
V61     V58    10.0   1_556     S
V62     V21    10.0   1_565     S
V62     V23    10.0   1_565     S
V62     V29    10.0   1_565     S
V62     V57    10.0   1_566     S
V63     V22    10.0   1_655     S
V63     V60    10.0   1_556     S
V64     V23    10.0   1_565     S
V64     V21    10.0   1_665     S
V64     V31    10.0   1_565     S
V64     V59    10.0   1_566     S
