data_wig
_audit_creation_date              2019-12-31
_audit_creation_method            'Pymatgen'
_symmetry_space_group_name_H-M    'P1'
_symmetry_Int_Tables_number       1
loop_
_symmetry_equiv_pos_as_xyz
  x,y,z
_cell_length_a                    36.1346
_cell_length_b                    36.1346
_cell_length_c                    54.4754
_cell_angle_alpha                 90.0
_cell_angle_beta                 90.0
_cell_angle_gamma                 90.0
loop_
_atom_site_label
_atom_site_type_symbol
_atom_site_fract_x
_atom_site_fract_y
_atom_site_fract_z
V1     V     0.4022   0.0978   0.715
V2     V     0.4022   0.5978   0.715
V3     V     0.9022   0.0978   0.715
V4     V     0.9022   0.5978   0.715
V5     V     0.0978   0.4022   0.715
V6     V     0.0978   0.9022   0.715
V7     V     0.5978   0.4022   0.715
V8     V     0.5978   0.9022   0.715
V9     V     0.1522   0.1522   0.785
V10     V     0.1522   0.6522   0.785
V11     V     0.6522   0.1522   0.785
V12     V     0.6522   0.6522   0.785
V13     V     0.3478   0.3478   0.785
V14     V     0.3478   0.8478   0.785
V15     V     0.8478   0.3478   0.785
V16     V     0.8478   0.8478   0.785
V17     V     0.3478   0.0978   0.035
V18     V     0.3478   0.5978   0.035
V19     V     0.8478   0.0978   0.035
V20     V     0.8478   0.5978   0.035
V21     V     0.1522   0.4022   0.035
V22     V     0.1522   0.9022   0.035
V23     V     0.6522   0.4022   0.035
V24     V     0.6522   0.9022   0.035
V25     V     0.4022   0.3478   0.965
V26     V     0.4022   0.8478   0.965
V27     V     0.9022   0.3478   0.965
V28     V     0.9022   0.8478   0.965
V29     V     0.0978   0.1522   0.965
V30     V     0.0978   0.6522   0.965
V31     V     0.5978   0.1522   0.965
V32     V     0.5978   0.6522   0.965
V33     V     0.4022   0.1522   0.535
V34     V     0.4022   0.6522   0.535
V35     V     0.9022   0.1522   0.535
V36     V     0.9022   0.6522   0.535
V37     V     0.3478   0.4022   0.465
V38     V     0.3478   0.9022   0.465
V39     V     0.8478   0.4022   0.465
V40     V     0.8478   0.9022   0.465
V41     V     0.1522   0.0978   0.465
V42     V     0.1522   0.5978   0.465
V43     V     0.6522   0.0978   0.465
V44     V     0.6522   0.5978   0.465
V45     V     0.0978   0.3478   0.535
V46     V     0.0978   0.8478   0.535
V47     V     0.5978   0.3478   0.535
V48     V     0.5978   0.8478   0.535
V49     V     0.4022   0.4022   0.285
V50     V     0.4022   0.9022   0.285
V51     V     0.9022   0.4022   0.285
V52     V     0.9022   0.9022   0.285
V53     V     0.1522   0.3478   0.215
V54     V     0.1522   0.8478   0.215
V55     V     0.6522   0.3478   0.215
V56     V     0.6522   0.8478   0.215
V57     V     0.0978   0.0978   0.285
V58     V     0.0978   0.5978   0.285
V59     V     0.5978   0.0978   0.285
V60     V     0.5978   0.5978   0.285
V61     V     0.3478   0.1522   0.215
V62     V     0.3478   0.6522   0.215
V63     V     0.8478   0.1522   0.215
V64     V     0.8478   0.6522   0.215
loop_
_geom_bond_atom_site_label_1
_geom_bond_atom_site_label_2
_geom_bond_distance
_geom_bond_site_symmetry_2
_ccdc_geom_bond_type
V1     V9    10.0   .     S
V1     V13    10.0   .     S
V1     V8    10.0   1_545     S
V1     V11    10.0   .     S
V1     V14    10.0   1_545     S
V1     V33    10.0   .     S
V2     V10    10.0   .     S
V2     V14    10.0   .     S
V2     V7    10.0   .     S
V2     V12    10.0   .     S
V2     V13    10.0   .     S
V2     V34    10.0   .     S
V3     V11    10.0   .     S
V3     V15    10.0   .     S
V3     V6    10.0   1_645     S
V3     V9    10.0   1_655     S
V3     V16    10.0   1_545     S
V3     V35    10.0   .     S
V4     V12    10.0   .     S
V4     V16    10.0   .     S
V4     V5    10.0   1_655     S
V4     V10    10.0   1_655     S
V4     V15    10.0   .     S
V4     V36    10.0   .     S
V5     V10    10.0   .     S
V5     V4    10.0   1_455     S
V5     V9    10.0   .     S
V5     V13    10.0   .     S
V5     V15    10.0   1_455     S
V5     V45    10.0   .     S
V6     V9    10.0   1_565     S
V6     V3    10.0   1_465     S
V6     V10    10.0   .     S
V6     V14    10.0   .     S
V6     V16    10.0   1_455     S
V6     V46    10.0   .     S
V7     V12    10.0   .     S
V7     V11    10.0   .     S
V7     V15    10.0   .     S
V7     V13    10.0   .     S
V7     V47    10.0   .     S
V8     V11    10.0   1_565     S
V8     V1    10.0   1_565     S
V8     V12    10.0   .     S
V8     V16    10.0   .     S
V8     V14    10.0   .     S
V8     V48    10.0   .     S
V9     V6    10.0   1_545     S
V9     V3    10.0   1_455     S
V9     V13    10.0   .     S
V9     V29    10.0   .     S
V10     V4    10.0   1_455     S
V10     V14    10.0   .     S
V10     V30    10.0   .     S
V11     V8    10.0   1_545     S
V11     V15    10.0   .     S
V11     V31    10.0   .     S
V12     V16    10.0   .     S
V12     V32    10.0   .     S
V13     V25    10.0   .     S
V14     V1    10.0   1_565     S
V14     V26    10.0   .     S
V15     V5    10.0   1_655     S
V15     V27    10.0   .     S
V16     V6    10.0   1_655     S
V16     V3    10.0   1_565     S
V16     V28    10.0   .     S
V17     V25    10.0   1_554     S
V17     V31    10.0   1_554     S
V17     V22    10.0   1_545     S
V17     V29    10.0   1_554     S
V17     V26    10.0   1_544     S
V17     V61    10.0   .     S
V18     V26    10.0   1_554     S
V18     V32    10.0   1_554     S
V18     V21    10.0   .     S
V18     V30    10.0   1_554     S
V18     V25    10.0   1_554     S
V18     V62    10.0   .     S
V19     V27    10.0   1_554     S
V19     V29    10.0   1_654     S
V19     V24    10.0   1_545     S
V19     V31    10.0   1_554     S
V19     V28    10.0   1_544     S
V19     V63    10.0   .     S
V20     V28    10.0   1_554     S
V20     V30    10.0   1_654     S
V20     V23    10.0   .     S
V20     V32    10.0   1_554     S
V20     V27    10.0   1_554     S
V20     V64    10.0   .     S
V21     V30    10.0   1_554     S
V21     V29    10.0   1_554     S
V21     V25    10.0   1_554     S
V21     V27    10.0   1_454     S
V21     V53    10.0   .     S
V22     V29    10.0   1_564     S
V22     V17    10.0   1_565     S
V22     V30    10.0   1_554     S
V22     V26    10.0   1_554     S
V22     V28    10.0   1_454     S
V22     V54    10.0   .     S
V23     V32    10.0   1_554     S
V23     V31    10.0   1_554     S
V23     V27    10.0   1_554     S
V23     V25    10.0   1_554     S
V23     V55    10.0   .     S
V24     V31    10.0   1_564     S
V24     V19    10.0   1_565     S
V24     V32    10.0   1_554     S
V24     V28    10.0   1_554     S
V24     V26    10.0   1_554     S
V24     V56    10.0   .     S
V25     V17    10.0   1_556     S
V25     V18    10.0   1_556     S
V25     V21    10.0   1_556     S
V25     V23    10.0   1_556     S
V25     V31    10.0   .     S
V26     V18    10.0   1_556     S
V26     V17    10.0   1_566     S
V26     V22    10.0   1_556     S
V26     V24    10.0   1_556     S
V26     V32    10.0   .     S
V27     V19    10.0   1_556     S
V27     V20    10.0   1_556     S
V27     V23    10.0   1_556     S
V27     V21    10.0   1_656     S
V27     V29    10.0   1_655     S
V28     V20    10.0   1_556     S
V28     V19    10.0   1_566     S
V28     V24    10.0   1_556     S
V28     V22    10.0   1_656     S
V28     V30    10.0   1_655     S
V29     V19    10.0   1_456     S
V29     V22    10.0   1_546     S
V29     V17    10.0   1_556     S
V29     V21    10.0   1_556     S
V29     V27    10.0   1_455     S
V30     V20    10.0   1_456     S
V30     V21    10.0   1_556     S
V30     V18    10.0   1_556     S
V30     V22    10.0   1_556     S
V30     V28    10.0   1_455     S
V31     V17    10.0   1_556     S
V31     V24    10.0   1_546     S
V31     V19    10.0   1_556     S
V31     V23    10.0   1_556     S
V32     V18    10.0   1_556     S
V32     V23    10.0   1_556     S
V32     V20    10.0   1_556     S
V32     V24    10.0   1_556     S
V33     V37    10.0   .     S
V33     V38    10.0   1_545     S
V33     V41    10.0   .     S
V33     V47    10.0   .     S
V33     V43    10.0   .     S
V34     V38    10.0   .     S
V34     V37    10.0   .     S
V34     V42    10.0   .     S
V34     V48    10.0   .     S
V34     V44    10.0   .     S
V35     V39    10.0   .     S
V35     V40    10.0   1_545     S
V35     V43    10.0   .     S
V35     V45    10.0   1_655     S
V35     V41    10.0   1_655     S
V36     V40    10.0   .     S
V36     V39    10.0   .     S
V36     V44    10.0   .     S
V36     V46    10.0   1_655     S
V36     V42    10.0   1_655     S
V37     V47    10.0   .     S
V37     V45    10.0   .     S
V37     V42    10.0   .     S
V37     V49    10.0   .     S
V38     V33    10.0   1_565     S
V38     V48    10.0   .     S
V38     V46    10.0   .     S
V38     V41    10.0   1_565     S
V38     V50    10.0   .     S
V39     V45    10.0   1_655     S
V39     V47    10.0   .     S
V39     V44    10.0   .     S
V39     V51    10.0   .     S
V40     V35    10.0   1_565     S
V40     V46    10.0   1_655     S
V40     V48    10.0   .     S
V40     V43    10.0   1_565     S
V40     V52    10.0   .     S
V41     V46    10.0   1_545     S
V41     V35    10.0   1_455     S
V41     V45    10.0   .     S
V41     V38    10.0   1_545     S
V41     V57    10.0   .     S
V42     V45    10.0   .     S
V42     V36    10.0   1_455     S
V42     V46    10.0   .     S
V42     V58    10.0   .     S
V43     V48    10.0   1_545     S
V43     V47    10.0   .     S
V43     V40    10.0   1_545     S
V43     V59    10.0   .     S
V44     V47    10.0   .     S
V44     V48    10.0   .     S
V44     V60    10.0   .     S
V45     V39    10.0   1_455     S
V45     V35    10.0   1_455     S
V46     V41    10.0   1_565     S
V46     V40    10.0   1_455     S
V46     V36    10.0   1_455     S
V48     V43    10.0   1_565     S
V49     V61    10.0   .     S
V49     V53    10.0   .     S
V49     V62    10.0   .     S
V49     V55    10.0   .     S
V49     V60    10.0   .     S
V50     V62    10.0   .     S
V50     V54    10.0   .     S
V50     V61    10.0   1_565     S
V50     V56    10.0   .     S
V50     V59    10.0   1_565     S
V51     V63    10.0   .     S
V51     V55    10.0   .     S
V51     V64    10.0   .     S
V51     V53    10.0   1_655     S
V51     V58    10.0   1_655     S
V52     V64    10.0   .     S
V52     V56    10.0   .     S
V52     V63    10.0   1_565     S
V52     V54    10.0   1_655     S
V52     V57    10.0   1_665     S
V53     V58    10.0   .     S
V53     V57    10.0   .     S
V53     V51    10.0   1_455     S
V53     V61    10.0   .     S
V54     V57    10.0   1_565     S
V54     V58    10.0   .     S
V54     V52    10.0   1_455     S
V54     V62    10.0   .     S
V55     V60    10.0   .     S
V55     V59    10.0   .     S
V55     V63    10.0   .     S
V56     V59    10.0   1_565     S
V56     V60    10.0   .     S
V56     V64    10.0   .     S
V57     V54    10.0   1_545     S
V57     V61    10.0   .     S
V57     V63    10.0   1_455     S
V57     V52    10.0   1_445     S
V58     V62    10.0   .     S
V58     V64    10.0   1_455     S
V58     V51    10.0   1_455     S
V59     V56    10.0   1_545     S
V59     V63    10.0   .     S
V59     V61    10.0   .     S
V59     V50    10.0   1_545     S
V60     V64    10.0   .     S
V60     V62    10.0   .     S
V61     V50    10.0   1_545     S
V63     V52    10.0   1_545     S
V63     V57    10.0   1_655     S
V64     V58    10.0   1_655     S
