data_wih
_audit_creation_date              2019-12-31
_audit_creation_method            'Pymatgen'
_symmetry_space_group_name_H-M    'P1'
_symmetry_Int_Tables_number       1
loop_
_symmetry_equiv_pos_as_xyz
  x,y,z
_cell_length_a                    64.7065
_cell_length_b                    64.7065
_cell_length_c                    30.0
_cell_angle_alpha                 90.0
_cell_angle_beta                 90.0
_cell_angle_gamma                 90.0
loop_
_atom_site_label
_atom_site_type_symbol
_atom_site_fract_x
_atom_site_fract_y
_atom_site_fract_z
V1     V     0.6831   0.1727   0.1667
V2     V     0.6831   0.1727   0.5
V3     V     0.6831   0.1727   0.8333
V4     V     0.6831   0.3273   0.1667
V5     V     0.6831   0.3273   0.5
V6     V     0.6831   0.3273   0.8333
V7     V     0.8169   0.1727   0.0
V8     V     0.8169   0.1727   0.3333
V9     V     0.8169   0.1727   0.6667
V10     V     0.8169   0.3273   0.0
V11     V     0.8169   0.3273   0.3333
V12     V     0.8169   0.3273   0.6667
V13     V     0.8169   0.8273   0.0
V14     V     0.8169   0.8273   0.3333
V15     V     0.8169   0.8273   0.6667
V16     V     0.8169   0.6727   0.0
V17     V     0.8169   0.6727   0.3333
V18     V     0.8169   0.6727   0.6667
V19     V     0.6831   0.8273   0.1667
V20     V     0.6831   0.8273   0.5
V21     V     0.6831   0.8273   0.8333
V22     V     0.6831   0.6727   0.1667
V23     V     0.6831   0.6727   0.5
V24     V     0.6831   0.6727   0.8333
V25     V     0.9227   0.5669   0.0833
V26     V     0.9227   0.5669   0.4167
V27     V     0.9227   0.5669   0.75
V28     V     0.0773   0.5669   0.0833
V29     V     0.0773   0.5669   0.4167
V30     V     0.0773   0.5669   0.75
V31     V     0.9227   0.4331   0.25
V32     V     0.9227   0.4331   0.5833
V33     V     0.9227   0.4331   0.9167
V34     V     0.0773   0.4331   0.25
V35     V     0.0773   0.4331   0.5833
V36     V     0.0773   0.4331   0.9167
V37     V     0.5773   0.5669   0.0833
V38     V     0.5773   0.5669   0.4167
V39     V     0.5773   0.5669   0.75
V40     V     0.4227   0.5669   0.0833
V41     V     0.4227   0.5669   0.4167
V42     V     0.4227   0.5669   0.75
V43     V     0.5773   0.4331   0.25
V44     V     0.5773   0.4331   0.5833
V45     V     0.5773   0.4331   0.9167
V46     V     0.4227   0.4331   0.25
V47     V     0.4227   0.4331   0.5833
V48     V     0.4227   0.4331   0.9167
V49     V     0.9227   0.0669   0.25
V50     V     0.9227   0.0669   0.5833
V51     V     0.9227   0.0669   0.9167
V52     V     0.0773   0.0669   0.25
V53     V     0.0773   0.0669   0.5833
V54     V     0.0773   0.0669   0.9167
V55     V     0.9227   0.9331   0.0833
V56     V     0.9227   0.9331   0.4167
V57     V     0.9227   0.9331   0.75
V58     V     0.0773   0.9331   0.0833
V59     V     0.0773   0.9331   0.4167
V60     V     0.0773   0.9331   0.75
V61     V     0.5773   0.0669   0.25
V62     V     0.5773   0.0669   0.5833
V63     V     0.5773   0.0669   0.9167
V64     V     0.4227   0.0669   0.25
V65     V     0.4227   0.0669   0.5833
V66     V     0.4227   0.0669   0.9167
V67     V     0.5773   0.9331   0.0833
V68     V     0.5773   0.9331   0.4167
V69     V     0.5773   0.9331   0.75
V70     V     0.4227   0.9331   0.0833
V71     V     0.4227   0.9331   0.4167
V72     V     0.4227   0.9331   0.75
V73     V     0.1831   0.1727   0.0
V74     V     0.1831   0.1727   0.3333
V75     V     0.1831   0.1727   0.6667
V76     V     0.1831   0.3273   0.0
V77     V     0.1831   0.3273   0.3333
V78     V     0.1831   0.3273   0.6667
V79     V     0.3169   0.1727   0.1667
V80     V     0.3169   0.1727   0.5
V81     V     0.3169   0.1727   0.8333
V82     V     0.3169   0.3273   0.1667
V83     V     0.3169   0.3273   0.5
V84     V     0.3169   0.3273   0.8333
V85     V     0.3169   0.8273   0.1667
V86     V     0.3169   0.8273   0.5
V87     V     0.3169   0.8273   0.8333
V88     V     0.3169   0.6727   0.1667
V89     V     0.3169   0.6727   0.5
V90     V     0.3169   0.6727   0.8333
V91     V     0.1831   0.8273   0.0
V92     V     0.1831   0.8273   0.3333
V93     V     0.1831   0.8273   0.6667
V94     V     0.1831   0.6727   0.0
V95     V     0.1831   0.6727   0.3333
V96     V     0.1831   0.6727   0.6667
loop_
_geom_bond_atom_site_label_1
_geom_bond_atom_site_label_2
_geom_bond_distance
_geom_bond_site_symmetry_2
_ccdc_geom_bond_type
V1     V4    10.0   .     S
V1     V3    10.0   1_554     S
V1     V2    10.0   .     S
V1     V8    10.0   .     S
V1     V7    10.0   .     S
V1     V61    10.0   .     S
V2     V5    10.0   .     S
V2     V3    10.0   .     S
V2     V9    10.0   .     S
V2     V8    10.0   .     S
V2     V62    10.0   .     S
V3     V6    10.0   .     S
V3     V1    10.0   1_556     S
V3     V7    10.0   1_556     S
V3     V9    10.0   .     S
V3     V63    10.0   .     S
V4     V11    10.0   .     S
V4     V10    10.0   .     S
V4     V6    10.0   1_554     S
V4     V5    10.0   .     S
V4     V43    10.0   .     S
V5     V12    10.0   .     S
V5     V11    10.0   .     S
V5     V6    10.0   .     S
V5     V44    10.0   .     S
V6     V10    10.0   1_556     S
V6     V12    10.0   .     S
V6     V4    10.0   1_556     S
V6     V45    10.0   .     S
V7     V10    10.0   .     S
V7     V8    10.0   .     S
V7     V9    10.0   1_554     S
V7     V3    10.0   1_554     S
V7     V51    10.0   1_554     S
V8     V11    10.0   .     S
V8     V9    10.0   .     S
V8     V49    10.0   .     S
V9     V12    10.0   .     S
V9     V7    10.0   1_556     S
V9     V50    10.0   .     S
V10     V6    10.0   1_554     S
V10     V11    10.0   .     S
V10     V12    10.0   1_554     S
V10     V33    10.0   1_554     S
V11     V12    10.0   .     S
V11     V31    10.0   .     S
V12     V10    10.0   1_556     S
V12     V32    10.0   .     S
V13     V16    10.0   .     S
V13     V14    10.0   .     S
V13     V15    10.0   1_554     S
V13     V19    10.0   .     S
V13     V21    10.0   1_554     S
V13     V55    10.0   .     S
V14     V17    10.0   .     S
V14     V15    10.0   .     S
V14     V20    10.0   .     S
V14     V19    10.0   .     S
V14     V56    10.0   .     S
V15     V18    10.0   .     S
V15     V13    10.0   1_556     S
V15     V21    10.0   .     S
V15     V20    10.0   .     S
V15     V57    10.0   .     S
V16     V22    10.0   .     S
V16     V24    10.0   1_554     S
V16     V17    10.0   .     S
V16     V18    10.0   1_554     S
V16     V25    10.0   .     S
V17     V23    10.0   .     S
V17     V22    10.0   .     S
V17     V18    10.0   .     S
V17     V26    10.0   .     S
V18     V24    10.0   .     S
V18     V23    10.0   .     S
V18     V16    10.0   1_556     S
V18     V27    10.0   .     S
V19     V22    10.0   .     S
V19     V21    10.0   1_554     S
V19     V20    10.0   .     S
V19     V67    10.0   .     S
V20     V23    10.0   .     S
V20     V21    10.0   .     S
V20     V68    10.0   .     S
V21     V24    10.0   .     S
V21     V19    10.0   1_556     S
V21     V13    10.0   1_556     S
V21     V69    10.0   .     S
V22     V24    10.0   1_554     S
V22     V23    10.0   .     S
V22     V37    10.0   .     S
V23     V24    10.0   .     S
V23     V38    10.0   .     S
V24     V16    10.0   1_556     S
V24     V22    10.0   1_556     S
V24     V39    10.0   .     S
V25     V28    10.0   1_655     S
V25     V26    10.0   .     S
V25     V27    10.0   1_554     S
V25     V33    10.0   1_554     S
V25     V31    10.0   .     S
V26     V29    10.0   1_655     S
V26     V27    10.0   .     S
V26     V31    10.0   .     S
V26     V32    10.0   .     S
V27     V30    10.0   1_655     S
V27     V25    10.0   1_556     S
V27     V32    10.0   .     S
V27     V33    10.0   .     S
V28     V25    10.0   1_455     S
V28     V29    10.0   .     S
V28     V30    10.0   1_554     S
V28     V36    10.0   1_554     S
V28     V34    10.0   .     S
V28     V94    10.0   .     S
V29     V26    10.0   1_455     S
V29     V30    10.0   .     S
V29     V34    10.0   .     S
V29     V35    10.0   .     S
V29     V95    10.0   .     S
V30     V27    10.0   1_455     S
V30     V28    10.0   1_556     S
V30     V35    10.0   .     S
V30     V36    10.0   .     S
V30     V96    10.0   .     S
V31     V34    10.0   1_655     S
V31     V33    10.0   1_554     S
V31     V32    10.0   .     S
V32     V35    10.0   1_655     S
V32     V33    10.0   .     S
V33     V36    10.0   1_655     S
V33     V31    10.0   1_556     S
V33     V25    10.0   1_556     S
V33     V10    10.0   1_556     S
V34     V31    10.0   1_455     S
V34     V36    10.0   1_554     S
V34     V35    10.0   .     S
V34     V77    10.0   .     S
V35     V32    10.0   1_455     S
V35     V36    10.0   .     S
V35     V78    10.0   .     S
V36     V28    10.0   1_556     S
V36     V33    10.0   1_455     S
V36     V34    10.0   1_556     S
V36     V76    10.0   1_556     S
V37     V40    10.0   .     S
V37     V38    10.0   .     S
V37     V39    10.0   1_554     S
V37     V43    10.0   .     S
V37     V45    10.0   1_554     S
V38     V41    10.0   .     S
V38     V39    10.0   .     S
V38     V44    10.0   .     S
V38     V43    10.0   .     S
V39     V42    10.0   .     S
V39     V37    10.0   1_556     S
V39     V45    10.0   .     S
V39     V44    10.0   .     S
V40     V41    10.0   .     S
V40     V42    10.0   1_554     S
V40     V46    10.0   .     S
V40     V48    10.0   1_554     S
V40     V88    10.0   .     S
V41     V42    10.0   .     S
V41     V47    10.0   .     S
V41     V46    10.0   .     S
V41     V89    10.0   .     S
V42     V40    10.0   1_556     S
V42     V48    10.0   .     S
V42     V47    10.0   .     S
V42     V90    10.0   .     S
V43     V46    10.0   .     S
V43     V45    10.0   1_554     S
V43     V44    10.0   .     S
V44     V47    10.0   .     S
V44     V45    10.0   .     S
V45     V48    10.0   .     S
V45     V43    10.0   1_556     S
V45     V37    10.0   1_556     S
V46     V48    10.0   1_554     S
V46     V47    10.0   .     S
V46     V82    10.0   .     S
V47     V48    10.0   .     S
V47     V83    10.0   .     S
V48     V40    10.0   1_556     S
V48     V46    10.0   1_556     S
V48     V84    10.0   .     S
V49     V52    10.0   1_655     S
V49     V51    10.0   1_554     S
V49     V50    10.0   .     S
V49     V56    10.0   1_545     S
V49     V55    10.0   1_545     S
V50     V53    10.0   1_655     S
V50     V51    10.0   .     S
V50     V57    10.0   1_545     S
V50     V56    10.0   1_545     S
V51     V54    10.0   1_655     S
V51     V49    10.0   1_556     S
V51     V55    10.0   1_546     S
V51     V57    10.0   1_545     S
V51     V7    10.0   1_556     S
V52     V49    10.0   1_455     S
V52     V54    10.0   1_554     S
V52     V53    10.0   .     S
V52     V59    10.0   1_545     S
V52     V58    10.0   1_545     S
V52     V74    10.0   .     S
V53     V50    10.0   1_455     S
V53     V54    10.0   .     S
V53     V60    10.0   1_545     S
V53     V59    10.0   1_545     S
V53     V75    10.0   .     S
V54     V51    10.0   1_455     S
V54     V52    10.0   1_556     S
V54     V58    10.0   1_546     S
V54     V60    10.0   1_545     S
V54     V73    10.0   1_556     S
V55     V51    10.0   1_564     S
V55     V49    10.0   1_565     S
V55     V58    10.0   1_655     S
V55     V56    10.0   .     S
V55     V57    10.0   1_554     S
V56     V49    10.0   1_565     S
V56     V50    10.0   1_565     S
V56     V59    10.0   1_655     S
V56     V57    10.0   .     S
V57     V50    10.0   1_565     S
V57     V51    10.0   1_565     S
V57     V60    10.0   1_655     S
V57     V55    10.0   1_556     S
V58     V55    10.0   1_455     S
V58     V59    10.0   .     S
V58     V60    10.0   1_554     S
V58     V54    10.0   1_564     S
V58     V52    10.0   1_565     S
V58     V91    10.0   .     S
V59     V56    10.0   1_455     S
V59     V60    10.0   .     S
V59     V52    10.0   1_565     S
V59     V53    10.0   1_565     S
V59     V92    10.0   .     S
V60     V57    10.0   1_455     S
V60     V58    10.0   1_556     S
V60     V53    10.0   1_565     S
V60     V54    10.0   1_565     S
V60     V93    10.0   .     S
V61     V64    10.0   .     S
V61     V63    10.0   1_554     S
V61     V62    10.0   .     S
V61     V67    10.0   1_545     S
V61     V68    10.0   1_545     S
V62     V65    10.0   .     S
V62     V63    10.0   .     S
V62     V68    10.0   1_545     S
V62     V69    10.0   1_545     S
V63     V66    10.0   .     S
V63     V61    10.0   1_556     S
V63     V69    10.0   1_545     S
V63     V67    10.0   1_546     S
V64     V66    10.0   1_554     S
V64     V65    10.0   .     S
V64     V70    10.0   1_545     S
V64     V71    10.0   1_545     S
V64     V79    10.0   .     S
V65     V66    10.0   .     S
V65     V71    10.0   1_545     S
V65     V72    10.0   1_545     S
V65     V80    10.0   .     S
V66     V64    10.0   1_556     S
V66     V72    10.0   1_545     S
V66     V70    10.0   1_546     S
V66     V81    10.0   .     S
V67     V61    10.0   1_565     S
V67     V63    10.0   1_564     S
V67     V70    10.0   .     S
V67     V68    10.0   .     S
V67     V69    10.0   1_554     S
V68     V62    10.0   1_565     S
V68     V61    10.0   1_565     S
V68     V71    10.0   .     S
V68     V69    10.0   .     S
V69     V63    10.0   1_565     S
V69     V62    10.0   1_565     S
V69     V72    10.0   .     S
V69     V67    10.0   1_556     S
V70     V71    10.0   .     S
V70     V72    10.0   1_554     S
V70     V64    10.0   1_565     S
V70     V66    10.0   1_564     S
V70     V85    10.0   .     S
V71     V72    10.0   .     S
V71     V65    10.0   1_565     S
V71     V64    10.0   1_565     S
V71     V86    10.0   .     S
V72     V70    10.0   1_556     S
V72     V66    10.0   1_565     S
V72     V65    10.0   1_565     S
V72     V87    10.0   .     S
V73     V54    10.0   1_554     S
V73     V76    10.0   .     S
V73     V74    10.0   .     S
V73     V75    10.0   1_554     S
V73     V81    10.0   1_554     S
V73     V79    10.0   .     S
V74     V77    10.0   .     S
V74     V75    10.0   .     S
V74     V79    10.0   .     S
V74     V80    10.0   .     S
V75     V78    10.0   .     S
V75     V73    10.0   1_556     S
V75     V80    10.0   .     S
V75     V81    10.0   .     S
V76     V36    10.0   1_554     S
V76     V84    10.0   1_554     S
V76     V82    10.0   .     S
V76     V77    10.0   .     S
V76     V78    10.0   1_554     S
V77     V82    10.0   .     S
V77     V83    10.0   .     S
V77     V78    10.0   .     S
V78     V83    10.0   .     S
V78     V84    10.0   .     S
V78     V76    10.0   1_556     S
V79     V82    10.0   .     S
V79     V81    10.0   1_554     S
V79     V80    10.0   .     S
V80     V83    10.0   .     S
V80     V81    10.0   .     S
V81     V84    10.0   .     S
V81     V79    10.0   1_556     S
V81     V73    10.0   1_556     S
V82     V84    10.0   1_554     S
V82     V83    10.0   .     S
V83     V84    10.0   .     S
V84     V76    10.0   1_556     S
V84     V82    10.0   1_556     S
V85     V88    10.0   .     S
V85     V87    10.0   1_554     S
V85     V86    10.0   .     S
V85     V91    10.0   .     S
V85     V92    10.0   .     S
V86     V89    10.0   .     S
V86     V87    10.0   .     S
V86     V92    10.0   .     S
V86     V93    10.0   .     S
V87     V90    10.0   .     S
V87     V85    10.0   1_556     S
V87     V93    10.0   .     S
V87     V91    10.0   1_556     S
V88     V94    10.0   .     S
V88     V95    10.0   .     S
V88     V90    10.0   1_554     S
V88     V89    10.0   .     S
V89     V95    10.0   .     S
V89     V96    10.0   .     S
V89     V90    10.0   .     S
V90     V96    10.0   .     S
V90     V94    10.0   1_556     S
V90     V88    10.0   1_556     S
V91     V94    10.0   .     S
V91     V92    10.0   .     S
V91     V93    10.0   1_554     S
V91     V87    10.0   1_554     S
V92     V95    10.0   .     S
V92     V93    10.0   .     S
V93     V96    10.0   .     S
V93     V91    10.0   1_556     S
V94     V90    10.0   1_554     S
V94     V95    10.0   .     S
V94     V96    10.0   1_554     S
V95     V96    10.0   .     S
V96     V94    10.0   1_556     S
