data_wii
_audit_creation_date              2019-12-31
_audit_creation_method            'Pymatgen'
_symmetry_space_group_name_H-M    'P1'
_symmetry_Int_Tables_number       1
loop_
_symmetry_equiv_pos_as_xyz
  x,y,z
_cell_length_a                    63.8599
_cell_length_b                    63.8599
_cell_length_c                    30.0
_cell_angle_alpha                 90.0
_cell_angle_beta                 90.0
_cell_angle_gamma                 90.0
loop_
_atom_site_label
_atom_site_type_symbol
_atom_site_fract_x
_atom_site_fract_y
_atom_site_fract_z
V1     V     0.3258   0.1717   0.125
V2     V     0.3258   0.1717   0.4583
V3     V     0.3258   0.1717   0.7917
V4     V     0.4217   0.0758   0.2917
V5     V     0.4217   0.0758   0.625
V6     V     0.4217   0.0758   0.9583
V7     V     0.3258   0.8283   0.2083
V8     V     0.3258   0.8283   0.5417
V9     V     0.3258   0.8283   0.875
V10     V     0.4217   0.9242   0.0417
V11     V     0.4217   0.9242   0.375
V12     V     0.4217   0.9242   0.7083
V13     V     0.0783   0.9242   0.125
V14     V     0.0783   0.9242   0.4583
V15     V     0.0783   0.9242   0.7917
V16     V     0.1742   0.8283   0.2917
V17     V     0.1742   0.8283   0.625
V18     V     0.1742   0.8283   0.9583
V19     V     0.0783   0.0758   0.2083
V20     V     0.0783   0.0758   0.5417
V21     V     0.0783   0.0758   0.875
V22     V     0.1742   0.1717   0.0417
V23     V     0.1742   0.1717   0.375
V24     V     0.1742   0.1717   0.7083
V25     V     0.1742   0.6717   0.2917
V26     V     0.1742   0.6717   0.625
V27     V     0.1742   0.6717   0.9583
V28     V     0.0783   0.5758   0.125
V29     V     0.0783   0.5758   0.4583
V30     V     0.0783   0.5758   0.7917
V31     V     0.3258   0.6717   0.2083
V32     V     0.3258   0.6717   0.5417
V33     V     0.3258   0.6717   0.875
V34     V     0.4217   0.5758   0.0417
V35     V     0.4217   0.5758   0.375
V36     V     0.4217   0.5758   0.7083
V37     V     0.3258   0.3283   0.125
V38     V     0.3258   0.3283   0.4583
V39     V     0.3258   0.3283   0.7917
V40     V     0.4217   0.4242   0.2917
V41     V     0.4217   0.4242   0.625
V42     V     0.4217   0.4242   0.9583
V43     V     0.0783   0.4242   0.2083
V44     V     0.0783   0.4242   0.5417
V45     V     0.0783   0.4242   0.875
V46     V     0.1742   0.3283   0.0417
V47     V     0.1742   0.3283   0.375
V48     V     0.1742   0.3283   0.7083
V49     V     0.5783   0.0758   0.2917
V50     V     0.5783   0.0758   0.625
V51     V     0.5783   0.0758   0.9583
V52     V     0.6742   0.1717   0.125
V53     V     0.6742   0.1717   0.4583
V54     V     0.6742   0.1717   0.7917
V55     V     0.9217   0.0758   0.2083
V56     V     0.9217   0.0758   0.5417
V57     V     0.9217   0.0758   0.875
V58     V     0.8258   0.1717   0.0417
V59     V     0.8258   0.1717   0.375
V60     V     0.8258   0.1717   0.7083
V61     V     0.5783   0.9242   0.0417
V62     V     0.5783   0.9242   0.375
V63     V     0.5783   0.9242   0.7083
V64     V     0.6742   0.8283   0.2083
V65     V     0.6742   0.8283   0.5417
V66     V     0.6742   0.8283   0.875
V67     V     0.9217   0.9242   0.125
V68     V     0.9217   0.9242   0.4583
V69     V     0.9217   0.9242   0.7917
V70     V     0.8258   0.8283   0.2917
V71     V     0.8258   0.8283   0.625
V72     V     0.8258   0.8283   0.9583
V73     V     0.5783   0.5758   0.0417
V74     V     0.5783   0.5758   0.375
V75     V     0.5783   0.5758   0.7083
V76     V     0.6742   0.6717   0.2083
V77     V     0.6742   0.6717   0.5417
V78     V     0.6742   0.6717   0.875
V79     V     0.6742   0.3283   0.125
V80     V     0.6742   0.3283   0.4583
V81     V     0.6742   0.3283   0.7917
V82     V     0.5783   0.4242   0.2917
V83     V     0.5783   0.4242   0.625
V84     V     0.5783   0.4242   0.9583
V85     V     0.8258   0.3283   0.0417
V86     V     0.8258   0.3283   0.375
V87     V     0.8258   0.3283   0.7083
V88     V     0.9217   0.4242   0.2083
V89     V     0.9217   0.4242   0.5417
V90     V     0.9217   0.4242   0.875
V91     V     0.8258   0.6717   0.2917
V92     V     0.8258   0.6717   0.625
V93     V     0.8258   0.6717   0.9583
V94     V     0.9217   0.5758   0.125
V95     V     0.9217   0.5758   0.4583
V96     V     0.9217   0.5758   0.7917
loop_
_geom_bond_atom_site_label_1
_geom_bond_atom_site_label_2
_geom_bond_distance
_geom_bond_site_symmetry_2
_ccdc_geom_bond_type
V1     V6    10.0   1_554     S
V1     V2    10.0   .     S
V1     V3    10.0   1_554     S
V1     V4    10.0   .     S
V1     V22    10.0   .     S
V1     V37    10.0   .     S
V2     V4    10.0   .     S
V2     V3    10.0   .     S
V2     V5    10.0   .     S
V2     V23    10.0   .     S
V2     V38    10.0   .     S
V3     V5    10.0   .     S
V3     V1    10.0   1_556     S
V3     V6    10.0   .     S
V3     V24    10.0   .     S
V3     V39    10.0   .     S
V4     V6    10.0   1_554     S
V4     V5    10.0   .     S
V4     V11    10.0   1_545     S
V4     V49    10.0   .     S
V5     V6    10.0   .     S
V5     V12    10.0   1_545     S
V5     V50    10.0   .     S
V6     V1    10.0   1_556     S
V6     V4    10.0   1_556     S
V6     V10    10.0   1_546     S
V6     V51    10.0   .     S
V7     V11    10.0   .     S
V7     V9    10.0   1_554     S
V7     V8    10.0   .     S
V7     V10    10.0   .     S
V7     V16    10.0   .     S
V7     V31    10.0   .     S
V8     V12    10.0   .     S
V8     V9    10.0   .     S
V8     V11    10.0   .     S
V8     V17    10.0   .     S
V8     V32    10.0   .     S
V9     V10    10.0   1_556     S
V9     V7    10.0   1_556     S
V9     V12    10.0   .     S
V9     V18    10.0   .     S
V9     V33    10.0   .     S
V10     V6    10.0   1_564     S
V10     V9    10.0   1_554     S
V10     V11    10.0   .     S
V10     V12    10.0   1_554     S
V10     V61    10.0   .     S
V11     V4    10.0   1_565     S
V11     V12    10.0   .     S
V11     V62    10.0   .     S
V12     V5    10.0   1_565     S
V12     V10    10.0   1_556     S
V12     V63    10.0   .     S
V13     V16    10.0   .     S
V13     V14    10.0   .     S
V13     V15    10.0   1_554     S
V13     V18    10.0   1_554     S
V13     V19    10.0   1_565     S
V13     V67    10.0   1_455     S
V14     V17    10.0   .     S
V14     V15    10.0   .     S
V14     V16    10.0   .     S
V14     V20    10.0   1_565     S
V14     V68    10.0   1_455     S
V15     V18    10.0   .     S
V15     V13    10.0   1_556     S
V15     V17    10.0   .     S
V15     V21    10.0   1_565     S
V15     V69    10.0   1_455     S
V16     V18    10.0   1_554     S
V16     V17    10.0   .     S
V16     V25    10.0   .     S
V17     V18    10.0   .     S
V17     V26    10.0   .     S
V18     V13    10.0   1_556     S
V18     V16    10.0   1_556     S
V18     V27    10.0   .     S
V19     V22    10.0   .     S
V19     V21    10.0   1_554     S
V19     V20    10.0   .     S
V19     V23    10.0   .     S
V19     V13    10.0   1_545     S
V19     V55    10.0   1_455     S
V20     V23    10.0   .     S
V20     V21    10.0   .     S
V20     V24    10.0   .     S
V20     V14    10.0   1_545     S
V20     V56    10.0   1_455     S
V21     V24    10.0   .     S
V21     V19    10.0   1_556     S
V21     V22    10.0   1_556     S
V21     V15    10.0   1_545     S
V21     V57    10.0   1_455     S
V22     V21    10.0   1_554     S
V22     V23    10.0   .     S
V22     V24    10.0   1_554     S
V22     V46    10.0   .     S
V23     V24    10.0   .     S
V23     V47    10.0   .     S
V24     V22    10.0   1_556     S
V24     V48    10.0   .     S
V25     V28    10.0   .     S
V25     V27    10.0   1_554     S
V25     V26    10.0   .     S
V25     V29    10.0   .     S
V25     V31    10.0   .     S
V26     V29    10.0   .     S
V26     V27    10.0   .     S
V26     V30    10.0   .     S
V26     V32    10.0   .     S
V27     V30    10.0   .     S
V27     V25    10.0   1_556     S
V27     V28    10.0   1_556     S
V27     V33    10.0   .     S
V28     V27    10.0   1_554     S
V28     V29    10.0   .     S
V28     V30    10.0   1_554     S
V28     V43    10.0   .     S
V28     V94    10.0   1_455     S
V29     V30    10.0   .     S
V29     V44    10.0   .     S
V29     V95    10.0   1_455     S
V30     V28    10.0   1_556     S
V30     V45    10.0   .     S
V30     V96    10.0   1_455     S
V31     V35    10.0   .     S
V31     V33    10.0   1_554     S
V31     V32    10.0   .     S
V31     V34    10.0   .     S
V32     V36    10.0   .     S
V32     V33    10.0   .     S
V32     V35    10.0   .     S
V33     V34    10.0   1_556     S
V33     V31    10.0   1_556     S
V33     V36    10.0   .     S
V34     V33    10.0   1_554     S
V34     V35    10.0   .     S
V34     V36    10.0   1_554     S
V34     V42    10.0   1_554     S
V34     V73    10.0   .     S
V35     V36    10.0   .     S
V35     V40    10.0   .     S
V35     V74    10.0   .     S
V36     V34    10.0   1_556     S
V36     V41    10.0   .     S
V36     V75    10.0   .     S
V37     V42    10.0   1_554     S
V37     V38    10.0   .     S
V37     V39    10.0   1_554     S
V37     V40    10.0   .     S
V37     V46    10.0   .     S
V38     V40    10.0   .     S
V38     V39    10.0   .     S
V38     V41    10.0   .     S
V38     V47    10.0   .     S
V39     V41    10.0   .     S
V39     V37    10.0   1_556     S
V39     V42    10.0   .     S
V39     V48    10.0   .     S
V40     V42    10.0   1_554     S
V40     V41    10.0   .     S
V40     V82    10.0   .     S
V41     V42    10.0   .     S
V41     V83    10.0   .     S
V42     V34    10.0   1_556     S
V42     V37    10.0   1_556     S
V42     V40    10.0   1_556     S
V42     V84    10.0   .     S
V43     V46    10.0   .     S
V43     V45    10.0   1_554     S
V43     V44    10.0   .     S
V43     V47    10.0   .     S
V43     V88    10.0   1_455     S
V44     V47    10.0   .     S
V44     V45    10.0   .     S
V44     V48    10.0   .     S
V44     V89    10.0   1_455     S
V45     V48    10.0   .     S
V45     V43    10.0   1_556     S
V45     V46    10.0   1_556     S
V45     V90    10.0   1_455     S
V46     V45    10.0   1_554     S
V46     V47    10.0   .     S
V46     V48    10.0   1_554     S
V47     V48    10.0   .     S
V48     V46    10.0   1_556     S
V49     V53    10.0   .     S
V49     V51    10.0   1_554     S
V49     V50    10.0   .     S
V49     V52    10.0   .     S
V49     V62    10.0   1_545     S
V50     V54    10.0   .     S
V50     V51    10.0   .     S
V50     V53    10.0   .     S
V50     V63    10.0   1_545     S
V51     V52    10.0   1_556     S
V51     V49    10.0   1_556     S
V51     V54    10.0   .     S
V51     V61    10.0   1_546     S
V52     V51    10.0   1_554     S
V52     V53    10.0   .     S
V52     V54    10.0   1_554     S
V52     V58    10.0   .     S
V52     V79    10.0   .     S
V53     V54    10.0   .     S
V53     V59    10.0   .     S
V53     V80    10.0   .     S
V54     V52    10.0   1_556     S
V54     V60    10.0   .     S
V54     V81    10.0   .     S
V55     V19    10.0   1_655     S
V55     V58    10.0   .     S
V55     V57    10.0   1_554     S
V55     V56    10.0   .     S
V55     V59    10.0   .     S
V55     V67    10.0   1_545     S
V56     V20    10.0   1_655     S
V56     V59    10.0   .     S
V56     V57    10.0   .     S
V56     V60    10.0   .     S
V56     V68    10.0   1_545     S
V57     V21    10.0   1_655     S
V57     V60    10.0   .     S
V57     V55    10.0   1_556     S
V57     V58    10.0   1_556     S
V57     V69    10.0   1_545     S
V58     V57    10.0   1_554     S
V58     V59    10.0   .     S
V58     V60    10.0   1_554     S
V58     V85    10.0   .     S
V59     V60    10.0   .     S
V59     V86    10.0   .     S
V60     V58    10.0   1_556     S
V60     V87    10.0   .     S
V61     V66    10.0   1_554     S
V61     V62    10.0   .     S
V61     V63    10.0   1_554     S
V61     V64    10.0   .     S
V61     V51    10.0   1_564     S
V62     V64    10.0   .     S
V62     V63    10.0   .     S
V62     V65    10.0   .     S
V62     V49    10.0   1_565     S
V63     V65    10.0   .     S
V63     V61    10.0   1_556     S
V63     V66    10.0   .     S
V63     V50    10.0   1_565     S
V64     V66    10.0   1_554     S
V64     V65    10.0   .     S
V64     V70    10.0   .     S
V64     V76    10.0   .     S
V65     V66    10.0   .     S
V65     V71    10.0   .     S
V65     V77    10.0   .     S
V66     V61    10.0   1_556     S
V66     V64    10.0   1_556     S
V66     V72    10.0   .     S
V66     V78    10.0   .     S
V67     V13    10.0   1_655     S
V67     V70    10.0   .     S
V67     V68    10.0   .     S
V67     V69    10.0   1_554     S
V67     V72    10.0   1_554     S
V67     V55    10.0   1_565     S
V68     V14    10.0   1_655     S
V68     V71    10.0   .     S
V68     V69    10.0   .     S
V68     V70    10.0   .     S
V68     V56    10.0   1_565     S
V69     V15    10.0   1_655     S
V69     V72    10.0   .     S
V69     V67    10.0   1_556     S
V69     V71    10.0   .     S
V69     V57    10.0   1_565     S
V70     V72    10.0   1_554     S
V70     V71    10.0   .     S
V70     V91    10.0   .     S
V71     V72    10.0   .     S
V71     V92    10.0   .     S
V72     V67    10.0   1_556     S
V72     V70    10.0   1_556     S
V72     V93    10.0   .     S
V73     V78    10.0   1_554     S
V73     V74    10.0   .     S
V73     V75    10.0   1_554     S
V73     V76    10.0   .     S
V73     V84    10.0   1_554     S
V74     V76    10.0   .     S
V74     V75    10.0   .     S
V74     V77    10.0   .     S
V74     V82    10.0   .     S
V75     V77    10.0   .     S
V75     V73    10.0   1_556     S
V75     V78    10.0   .     S
V75     V83    10.0   .     S
V76     V78    10.0   1_554     S
V76     V77    10.0   .     S
V76     V91    10.0   .     S
V77     V78    10.0   .     S
V77     V92    10.0   .     S
V78     V73    10.0   1_556     S
V78     V76    10.0   1_556     S
V78     V93    10.0   .     S
V79     V84    10.0   1_554     S
V79     V80    10.0   .     S
V79     V81    10.0   1_554     S
V79     V82    10.0   .     S
V79     V85    10.0   .     S
V80     V82    10.0   .     S
V80     V81    10.0   .     S
V80     V83    10.0   .     S
V80     V86    10.0   .     S
V81     V83    10.0   .     S
V81     V79    10.0   1_556     S
V81     V84    10.0   .     S
V81     V87    10.0   .     S
V82     V84    10.0   1_554     S
V82     V83    10.0   .     S
V83     V84    10.0   .     S
V84     V79    10.0   1_556     S
V84     V82    10.0   1_556     S
V84     V73    10.0   1_556     S
V85     V88    10.0   .     S
V85     V86    10.0   .     S
V85     V87    10.0   1_554     S
V85     V90    10.0   1_554     S
V86     V89    10.0   .     S
V86     V87    10.0   .     S
V86     V88    10.0   .     S
V87     V90    10.0   .     S
V87     V85    10.0   1_556     S
V87     V89    10.0   .     S
V88     V43    10.0   1_655     S
V88     V90    10.0   1_554     S
V88     V89    10.0   .     S
V88     V94    10.0   .     S
V89     V44    10.0   1_655     S
V89     V90    10.0   .     S
V89     V95    10.0   .     S
V90     V45    10.0   1_655     S
V90     V85    10.0   1_556     S
V90     V88    10.0   1_556     S
V90     V96    10.0   .     S
V91     V94    10.0   .     S
V91     V93    10.0   1_554     S
V91     V92    10.0   .     S
V91     V95    10.0   .     S
V92     V95    10.0   .     S
V92     V93    10.0   .     S
V92     V96    10.0   .     S
V93     V96    10.0   .     S
V93     V91    10.0   1_556     S
V93     V94    10.0   1_556     S
V94     V28    10.0   1_655     S
V94     V95    10.0   .     S
V94     V96    10.0   1_554     S
V94     V93    10.0   1_554     S
V95     V29    10.0   1_655     S
V95     V96    10.0   .     S
V96     V30    10.0   1_655     S
V96     V94    10.0   1_556     S
