data_wik
_audit_creation_date              2019-12-31
_audit_creation_method            'Pymatgen'
_symmetry_space_group_name_H-M    'P1'
_symmetry_Int_Tables_number       1
loop_
_symmetry_equiv_pos_as_xyz
  x,y,z
_cell_length_a                    62.1741
_cell_length_b                    62.1741
_cell_length_c                    30.0
_cell_angle_alpha                 90.0
_cell_angle_beta                 90.0
_cell_angle_gamma                 90.0
loop_
_atom_site_label
_atom_site_type_symbol
_atom_site_fract_x
_atom_site_fract_y
_atom_site_fract_z
V1     V     0.4304   0.4274   0.0116
V2     V     0.4304   0.4274   0.3449
V3     V     0.4304   0.4274   0.6782
V4     V     0.5696   0.4274   0.1782
V5     V     0.5696   0.4274   0.5116
V6     V     0.5696   0.4274   0.8449
V7     V     0.6774   0.3196   0.0717
V8     V     0.6774   0.3196   0.4051
V9     V     0.6774   0.3196   0.7384
V10     V     0.6774   0.1804   0.2384
V11     V     0.6774   0.1804   0.5718
V12     V     0.6774   0.1804   0.9051
V13     V     0.4304   0.0726   0.1782
V14     V     0.4304   0.0726   0.5116
V15     V     0.4304   0.0726   0.8449
V16     V     0.5696   0.0726   0.0116
V17     V     0.5696   0.0726   0.3449
V18     V     0.5696   0.0726   0.6782
V19     V     0.3226   0.3196   0.2384
V20     V     0.3226   0.3196   0.5718
V21     V     0.3226   0.3196   0.9051
V22     V     0.3226   0.1804   0.0718
V23     V     0.3226   0.1804   0.4051
V24     V     0.3226   0.1804   0.7384
V25     V     0.6774   0.8196   0.2616
V26     V     0.6774   0.8196   0.5949
V27     V     0.6774   0.8196   0.9282
V28     V     0.6774   0.6804   0.0949
V29     V     0.6774   0.6804   0.4282
V30     V     0.6774   0.6804   0.7616
V31     V     0.4304   0.9274   0.3218
V32     V     0.4304   0.9274   0.6551
V33     V     0.4304   0.9274   0.9884
V34     V     0.5696   0.9274   0.1551
V35     V     0.5696   0.9274   0.4884
V36     V     0.5696   0.9274   0.8218
V37     V     0.3226   0.6804   0.2616
V38     V     0.3226   0.6804   0.5949
V39     V     0.3226   0.6804   0.9282
V40     V     0.3226   0.8196   0.0949
V41     V     0.3226   0.8196   0.4282
V42     V     0.3226   0.8196   0.7616
V43     V     0.4304   0.5726   0.1551
V44     V     0.4304   0.5726   0.4884
V45     V     0.4304   0.5726   0.8218
V46     V     0.5696   0.5726   0.3218
V47     V     0.5696   0.5726   0.6551
V48     V     0.5696   0.5726   0.9884
V49     V     0.8226   0.6804   0.2384
V50     V     0.8226   0.6804   0.5718
V51     V     0.8226   0.6804   0.9051
V52     V     0.8226   0.8196   0.0718
V53     V     0.8226   0.8196   0.4051
V54     V     0.8226   0.8196   0.7384
V55     V     0.0696   0.9274   0.0116
V56     V     0.0696   0.9274   0.3449
V57     V     0.0696   0.9274   0.6782
V58     V     0.9304   0.9274   0.1782
V59     V     0.9304   0.9274   0.5116
V60     V     0.9304   0.9274   0.8449
V61     V     0.1774   0.6804   0.0718
V62     V     0.1774   0.6804   0.4051
V63     V     0.1774   0.6804   0.7384
V64     V     0.1774   0.8196   0.2384
V65     V     0.1774   0.8196   0.5718
V66     V     0.1774   0.8196   0.9051
V67     V     0.0696   0.5726   0.1782
V68     V     0.0696   0.5726   0.5116
V69     V     0.0696   0.5726   0.8449
V70     V     0.9304   0.5726   0.0116
V71     V     0.9304   0.5726   0.3449
V72     V     0.9304   0.5726   0.6782
V73     V     0.0696   0.0726   0.1551
V74     V     0.0696   0.0726   0.4884
V75     V     0.0696   0.0726   0.8218
V76     V     0.9304   0.0726   0.3218
V77     V     0.9304   0.0726   0.6551
V78     V     0.9304   0.0726   0.9884
V79     V     0.8226   0.3196   0.2616
V80     V     0.8226   0.3196   0.5949
V81     V     0.8226   0.3196   0.9282
V82     V     0.8226   0.1804   0.0949
V83     V     0.8226   0.1804   0.4282
V84     V     0.8226   0.1804   0.7616
V85     V     0.1774   0.3196   0.0949
V86     V     0.1774   0.3196   0.4282
V87     V     0.1774   0.3196   0.7616
V88     V     0.1774   0.1804   0.2616
V89     V     0.1774   0.1804   0.5949
V90     V     0.1774   0.1804   0.9282
V91     V     0.0696   0.4274   0.3218
V92     V     0.0696   0.4274   0.6551
V93     V     0.0696   0.4274   0.9884
V94     V     0.9304   0.4274   0.1551
V95     V     0.9304   0.4274   0.4884
V96     V     0.9304   0.4274   0.8218
loop_
_geom_bond_atom_site_label_1
_geom_bond_atom_site_label_2
_geom_bond_distance
_geom_bond_site_symmetry_2
_ccdc_geom_bond_type
V1     V2    10.0   .     S
V1     V3    10.0   1_554     S
V1     V4    9.999   .     S
V1     V6    9.999   1_554     S
V1     V21    10.0   1_554     S
V1     V43    10.0   .     S
V2     V3    10.0   .     S
V2     V5    9.999   .     S
V2     V4    9.999   .     S
V2     V19    10.0   .     S
V2     V44    10.0   .     S
V3     V1    10.0   1_556     S
V3     V6    9.999   .     S
V3     V5    9.999   .     S
V3     V20    10.0   .     S
V3     V45    10.0   .     S
V4     V6    10.0   1_554     S
V4     V5    10.0   .     S
V4     V7    10.0   .     S
V4     V46    10.0   .     S
V5     V6    10.0   .     S
V5     V8    10.0   .     S
V5     V47    10.0   .     S
V6     V1    9.999   1_556     S
V6     V4    10.0   1_556     S
V6     V9    10.0   .     S
V6     V48    10.0   .     S
V7     V8    10.0   .     S
V7     V9    10.0   1_554     S
V7     V12    9.999   1_554     S
V7     V10    9.999   .     S
V7     V81    10.0   1_554     S
V8     V9    10.0   .     S
V8     V10    9.999   .     S
V8     V11    9.999   .     S
V8     V79    10.0   .     S
V9     V7    10.0   1_556     S
V9     V11    9.999   .     S
V9     V12    9.999   .     S
V9     V80    10.0   .     S
V10     V12    10.0   1_554     S
V10     V11    10.0   .     S
V10     V17    10.0   .     S
V10     V82    10.0   .     S
V11     V12    10.0   .     S
V11     V18    10.0   .     S
V11     V83    10.0   .     S
V12     V7    9.999   1_556     S
V12     V10    10.0   1_556     S
V12     V16    10.0   1_556     S
V12     V84    10.0   .     S
V13     V15    10.0   1_554     S
V13     V14    10.0   .     S
V13     V16    9.999   .     S
V13     V17    9.999   .     S
V13     V22    10.0   .     S
V13     V31    10.0   1_545     S
V14     V15    10.0   .     S
V14     V17    9.999   .     S
V14     V18    9.999   .     S
V14     V23    10.0   .     S
V14     V32    10.0   1_545     S
V15     V13    10.0   1_556     S
V15     V18    9.999   .     S
V15     V16    9.999   1_556     S
V15     V24    10.0   .     S
V15     V33    10.0   1_545     S
V16     V17    10.0   .     S
V16     V18    10.0   1_554     S
V16     V15    9.999   1_554     S
V16     V12    10.0   1_554     S
V16     V34    10.0   1_545     S
V17     V18    10.0   .     S
V17     V35    10.0   1_545     S
V18     V16    10.0   1_556     S
V18     V36    10.0   1_545     S
V19     V23    9.999   .     S
V19     V21    10.0   1_554     S
V19     V20    10.0   .     S
V19     V22    9.999   .     S
V19     V85    10.0   .     S
V20     V24    9.999   .     S
V20     V21    10.0   .     S
V20     V23    9.999   .     S
V20     V86    10.0   .     S
V21     V1    10.0   1_556     S
V21     V22    9.999   1_556     S
V21     V19    10.0   1_556     S
V21     V24    9.999   .     S
V21     V87    10.0   .     S
V22     V21    9.999   1_554     S
V22     V23    10.0   .     S
V22     V24    10.0   1_554     S
V22     V90    10.0   1_554     S
V23     V24    10.0   .     S
V23     V88    10.0   .     S
V24     V22    10.0   1_556     S
V24     V89    10.0   .     S
V25     V29    9.999   .     S
V25     V27    10.0   1_554     S
V25     V26    10.0   .     S
V25     V28    9.999   .     S
V25     V34    10.0   .     S
V25     V53    10.0   .     S
V26     V30    9.999   .     S
V26     V27    10.0   .     S
V26     V29    9.999   .     S
V26     V35    10.0   .     S
V26     V54    10.0   .     S
V27     V28    9.999   1_556     S
V27     V25    10.0   1_556     S
V27     V30    9.999   .     S
V27     V36    10.0   .     S
V27     V52    10.0   1_556     S
V28     V27    9.999   1_554     S
V28     V29    10.0   .     S
V28     V30    10.0   1_554     S
V28     V48    10.0   1_554     S
V28     V49    10.0   .     S
V29     V30    10.0   .     S
V29     V46    10.0   .     S
V29     V50    10.0   .     S
V30     V28    10.0   1_556     S
V30     V47    10.0   .     S
V30     V51    10.0   .     S
V31     V13    10.0   1_565     S
V31     V33    10.0   1_554     S
V31     V32    10.0   .     S
V31     V35    9.999   .     S
V31     V34    9.999   .     S
V31     V41    10.0   .     S
V32     V14    10.0   1_565     S
V32     V33    10.0   .     S
V32     V36    9.999   .     S
V32     V35    9.999   .     S
V32     V42    10.0   .     S
V33     V15    10.0   1_565     S
V33     V31    10.0   1_556     S
V33     V34    9.999   1_556     S
V33     V36    9.999   .     S
V33     V40    10.0   1_556     S
V34     V33    9.999   1_554     S
V34     V35    10.0   .     S
V34     V36    10.0   1_554     S
V34     V16    10.0   1_565     S
V35     V36    10.0   .     S
V35     V17    10.0   1_565     S
V36     V34    10.0   1_556     S
V36     V18    10.0   1_565     S
V37     V41    9.999   .     S
V37     V39    10.0   1_554     S
V37     V38    10.0   .     S
V37     V40    9.999   .     S
V37     V43    10.0   .     S
V37     V62    10.0   .     S
V38     V42    9.999   .     S
V38     V39    10.0   .     S
V38     V41    9.999   .     S
V38     V44    10.0   .     S
V38     V63    10.0   .     S
V39     V40    9.999   1_556     S
V39     V37    10.0   1_556     S
V39     V42    9.999   .     S
V39     V45    10.0   .     S
V39     V61    10.0   1_556     S
V40     V33    10.0   1_554     S
V40     V39    9.999   1_554     S
V40     V41    10.0   .     S
V40     V42    10.0   1_554     S
V40     V64    10.0   .     S
V41     V42    10.0   .     S
V41     V65    10.0   .     S
V42     V40    10.0   1_556     S
V42     V66    10.0   .     S
V43     V44    10.0   .     S
V43     V45    10.0   1_554     S
V43     V46    9.999   .     S
V43     V48    9.999   1_554     S
V44     V45    10.0   .     S
V44     V47    9.999   .     S
V44     V46    9.999   .     S
V45     V43    10.0   1_556     S
V45     V48    9.999   .     S
V45     V47    9.999   .     S
V46     V48    10.0   1_554     S
V46     V47    10.0   .     S
V47     V48    10.0   .     S
V48     V28    10.0   1_556     S
V48     V43    9.999   1_556     S
V48     V46    10.0   1_556     S
V49     V53    9.999   .     S
V49     V51    10.0   1_554     S
V49     V50    10.0   .     S
V49     V52    9.999   .     S
V49     V71    10.0   .     S
V50     V54    9.999   .     S
V50     V51    10.0   .     S
V50     V53    9.999   .     S
V50     V72    10.0   .     S
V51     V52    9.999   1_556     S
V51     V49    10.0   1_556     S
V51     V54    9.999   .     S
V51     V70    10.0   1_556     S
V52     V27    10.0   1_554     S
V52     V51    9.999   1_554     S
V52     V53    10.0   .     S
V52     V54    10.0   1_554     S
V52     V58    10.0   .     S
V53     V54    10.0   .     S
V53     V59    10.0   .     S
V54     V52    10.0   1_556     S
V54     V60    10.0   .     S
V55     V56    10.0   .     S
V55     V57    10.0   1_554     S
V55     V58    9.999   1_455     S
V55     V60    9.999   1_454     S
V55     V66    10.0   1_554     S
V55     V73    10.0   1_565     S
V56     V57    10.0   .     S
V56     V59    9.999   1_455     S
V56     V58    9.999   1_455     S
V56     V64    10.0   .     S
V56     V74    10.0   1_565     S
V57     V55    10.0   1_556     S
V57     V60    9.999   1_455     S
V57     V59    9.999   1_455     S
V57     V65    10.0   .     S
V57     V75    10.0   1_565     S
V58     V55    9.999   1_655     S
V58     V56    9.999   1_655     S
V58     V60    10.0   1_554     S
V58     V59    10.0   .     S
V58     V76    10.0   1_565     S
V59     V56    9.999   1_655     S
V59     V57    9.999   1_655     S
V59     V60    10.0   .     S
V59     V77    10.0   1_565     S
V60     V57    9.999   1_655     S
V60     V55    9.999   1_656     S
V60     V58    10.0   1_556     S
V60     V78    10.0   1_565     S
V61     V64    9.999   .     S
V61     V62    10.0   .     S
V61     V63    10.0   1_554     S
V61     V66    9.999   1_554     S
V61     V67    10.0   .     S
V61     V39    10.0   1_554     S
V62     V65    9.999   .     S
V62     V63    10.0   .     S
V62     V64    9.999   .     S
V62     V68    10.0   .     S
V63     V66    9.999   .     S
V63     V61    10.0   1_556     S
V63     V65    9.999   .     S
V63     V69    10.0   .     S
V64     V66    10.0   1_554     S
V64     V65    10.0   .     S
V65     V66    10.0   .     S
V66     V55    10.0   1_556     S
V66     V64    10.0   1_556     S
V66     V61    9.999   1_556     S
V67     V70    9.999   1_455     S
V67     V69    10.0   1_554     S
V67     V68    10.0   .     S
V67     V71    9.999   1_455     S
V67     V91    10.0   .     S
V68     V71    9.999   1_455     S
V68     V69    10.0   .     S
V68     V72    9.999   1_455     S
V68     V92    10.0   .     S
V69     V72    9.999   1_455     S
V69     V67    10.0   1_556     S
V69     V70    9.999   1_456     S
V69     V93    10.0   .     S
V70     V51    10.0   1_554     S
V70     V67    9.999   1_655     S
V70     V69    9.999   1_654     S
V70     V71    10.0   .     S
V70     V72    10.0   1_554     S
V70     V94    10.0   .     S
V71     V68    9.999   1_655     S
V71     V67    9.999   1_655     S
V71     V72    10.0   .     S
V71     V95    10.0   .     S
V72     V69    9.999   1_655     S
V72     V68    9.999   1_655     S
V72     V70    10.0   1_556     S
V72     V96    10.0   .     S
V73     V78    9.999   1_454     S
V73     V74    10.0   .     S
V73     V75    10.0   1_554     S
V73     V76    9.999   1_455     S
V73     V88    10.0   .     S
V73     V55    10.0   1_545     S
V74     V76    9.999   1_455     S
V74     V75    10.0   .     S
V74     V77    9.999   1_455     S
V74     V89    10.0   .     S
V74     V56    10.0   1_545     S
V75     V77    9.999   1_455     S
V75     V73    10.0   1_556     S
V75     V78    9.999   1_455     S
V75     V90    10.0   .     S
V75     V57    10.0   1_545     S
V76     V74    9.999   1_655     S
V76     V73    9.999   1_655     S
V76     V78    10.0   1_554     S
V76     V77    10.0   .     S
V76     V83    10.0   .     S
V76     V58    10.0   1_545     S
V77     V75    9.999   1_655     S
V77     V74    9.999   1_655     S
V77     V78    10.0   .     S
V77     V84    10.0   .     S
V77     V59    10.0   1_545     S
V78     V73    9.999   1_656     S
V78     V75    9.999   1_655     S
V78     V76    10.0   1_556     S
V78     V82    10.0   1_556     S
V78     V60    10.0   1_545     S
V79     V81    10.0   1_554     S
V79     V80    10.0   .     S
V79     V82    9.999   .     S
V79     V83    9.999   .     S
V79     V94    10.0   .     S
V80     V81    10.0   .     S
V80     V83    9.999   .     S
V80     V84    9.999   .     S
V80     V95    10.0   .     S
V81     V7    10.0   1_556     S
V81     V79    10.0   1_556     S
V81     V84    9.999   .     S
V81     V82    9.999   1_556     S
V81     V96    10.0   .     S
V82     V78    10.0   1_554     S
V82     V81    9.999   1_554     S
V82     V83    10.0   .     S
V82     V84    10.0   1_554     S
V83     V84    10.0   .     S
V84     V82    10.0   1_556     S
V85     V88    9.999   .     S
V85     V86    10.0   .     S
V85     V87    10.0   1_554     S
V85     V90    9.999   1_554     S
V85     V93    10.0   1_554     S
V86     V89    9.999   .     S
V86     V87    10.0   .     S
V86     V88    9.999   .     S
V86     V91    10.0   .     S
V87     V90    9.999   .     S
V87     V85    10.0   1_556     S
V87     V89    9.999   .     S
V87     V92    10.0   .     S
V88     V90    10.0   1_554     S
V88     V89    10.0   .     S
V89     V90    10.0   .     S
V90     V85    9.999   1_556     S
V90     V88    10.0   1_556     S
V90     V22    10.0   1_556     S
V91     V93    10.0   1_554     S
V91     V92    10.0   .     S
V91     V94    9.999   1_455     S
V91     V95    9.999   1_455     S
V92     V93    10.0   .     S
V92     V95    9.999   1_455     S
V92     V96    9.999   1_455     S
V93     V91    10.0   1_556     S
V93     V96    9.999   1_455     S
V93     V94    9.999   1_456     S
V93     V85    10.0   1_556     S
V94     V91    9.999   1_655     S
V94     V93    9.999   1_654     S
V94     V95    10.0   .     S
V94     V96    10.0   1_554     S
V95     V92    9.999   1_655     S
V95     V91    9.999   1_655     S
V95     V96    10.0   .     S
V96     V93    9.999   1_655     S
V96     V92    9.999   1_655     S
V96     V94    10.0   1_556     S
