data_win
_audit_creation_date              2019-12-31
_audit_creation_method            'Pymatgen'
_symmetry_space_group_name_H-M    'P1'
_symmetry_Int_Tables_number       1
loop_
_symmetry_equiv_pos_as_xyz
  x,y,z
_cell_length_a                    45.4509
_cell_length_b                    45.4509
_cell_length_c                    39.5836
_cell_angle_alpha                 90.0
_cell_angle_beta                 90.0
_cell_angle_gamma                 90.0
loop_
_atom_site_label
_atom_site_type_symbol
_atom_site_fract_x
_atom_site_fract_y
_atom_site_fract_z
V1     V     0.0158   0.1084   0.2382
V2     V     0.0158   0.1084   0.7382
V3     V     0.9842   0.8916   0.2618
V4     V     0.9842   0.8916   0.7618
V5     V     0.1416   0.2342   0.3868
V6     V     0.1416   0.2342   0.8868
V7     V     0.3584   0.2658   0.3632
V8     V     0.3584   0.2658   0.8632
V9     V     0.8584   0.7658   0.1132
V10     V     0.8584   0.7658   0.6132
V11     V     0.6416   0.7342   0.1368
V12     V     0.6416   0.7342   0.6368
V13     V     0.5158   0.6084   0.4882
V14     V     0.5158   0.6084   0.9882
V15     V     0.4842   0.3916   0.0118
V16     V     0.4842   0.3916   0.5118
V17     V     0.1416   0.7658   0.3632
V18     V     0.1416   0.7658   0.8632
V19     V     0.3584   0.7342   0.3868
V20     V     0.3584   0.7342   0.8868
V21     V     0.0158   0.8916   0.0118
V22     V     0.0158   0.8916   0.5118
V23     V     0.9842   0.1084   0.4882
V24     V     0.9842   0.1084   0.9882
V25     V     0.4842   0.6084   0.2382
V26     V     0.4842   0.6084   0.7382
V27     V     0.5158   0.3916   0.2618
V28     V     0.5158   0.3916   0.7618
V29     V     0.8584   0.2342   0.1368
V30     V     0.8584   0.2342   0.6368
V31     V     0.6416   0.2658   0.1132
V32     V     0.6416   0.2658   0.6132
V33     V     0.4842   0.8916   0.4882
V34     V     0.4842   0.8916   0.9882
V35     V     0.5158   0.1084   0.0118
V36     V     0.5158   0.1084   0.5118
V37     V     0.1416   0.7342   0.1132
V38     V     0.1416   0.7342   0.6132
V39     V     0.3584   0.7658   0.1368
V40     V     0.3584   0.7658   0.6368
V41     V     0.0158   0.6084   0.2618
V42     V     0.0158   0.6084   0.7618
V43     V     0.9842   0.3916   0.2382
V44     V     0.9842   0.3916   0.7382
V45     V     0.8584   0.2658   0.3868
V46     V     0.8584   0.2658   0.8868
V47     V     0.6416   0.2342   0.3632
V48     V     0.6416   0.2342   0.8632
V49     V     0.9842   0.6084   0.0118
V50     V     0.9842   0.6084   0.5118
V51     V     0.0158   0.3916   0.4882
V52     V     0.0158   0.3916   0.9882
V53     V     0.8584   0.7342   0.3632
V54     V     0.8584   0.7342   0.8632
V55     V     0.6416   0.7658   0.3868
V56     V     0.6416   0.7658   0.8868
V57     V     0.4842   0.1084   0.2618
V58     V     0.4842   0.1084   0.7618
V59     V     0.5158   0.8916   0.2382
V60     V     0.5158   0.8916   0.7382
V61     V     0.1416   0.2658   0.1368
V62     V     0.1416   0.2658   0.6368
V63     V     0.3584   0.2342   0.1132
V64     V     0.3584   0.2342   0.6132
loop_
_geom_bond_atom_site_label_1
_geom_bond_atom_site_label_2
_geom_bond_distance
_geom_bond_site_symmetry_2
_ccdc_geom_bond_type
V1     V3    10.0   1_445     S
V1     V61    10.0   .     S
V1     V5    10.0   .     S
V1     V23    10.0   1_455     S
V1     V29    10.0   1_455     S
V1     V24    10.0   1_454     S
V2     V4    10.0   1_445     S
V2     V62    10.0   .     S
V2     V6    10.0   .     S
V2     V24    10.0   1_455     S
V2     V30    10.0   1_455     S
V2     V23    10.0   1_455     S
V3     V1    10.0   1_665     S
V3     V53    10.0   .     S
V3     V9    10.0   .     S
V3     V21    10.0   1_655     S
V3     V17    10.0   1_655     S
V3     V22    10.0   1_655     S
V4     V2    10.0   1_665     S
V4     V54    10.0   .     S
V4     V10    10.0   .     S
V4     V22    10.0   1_655     S
V4     V18    10.0   1_655     S
V4     V21    10.0   1_656     S
V5     V7    10.0   .     S
V5     V23    10.0   1_455     S
V5     V51    10.0   .     S
V5     V61    10.0   .     S
V5     V62    10.0   .     S
V6     V8    10.0   .     S
V6     V24    10.0   1_455     S
V6     V52    10.0   .     S
V6     V62    10.0   .     S
V6     V61    10.0   1_556     S
V7     V27    10.0   .     S
V7     V16    10.0   .     S
V7     V57    10.0   .     S
V7     V64    10.0   .     S
V7     V63    10.0   .     S
V8     V28    10.0   .     S
V8     V15    10.0   1_556     S
V8     V58    10.0   .     S
V8     V63    10.0   1_556     S
V8     V64    10.0   .     S
V9     V11    10.0   .     S
V9     V21    10.0   1_655     S
V9     V54    10.0   1_554     S
V9     V49    10.0   .     S
V9     V53    10.0   .     S
V10     V12    10.0   .     S
V10     V22    10.0   1_655     S
V10     V53    10.0   .     S
V10     V50    10.0   .     S
V10     V54    10.0   .     S
V11     V25    10.0   .     S
V11     V14    10.0   1_554     S
V11     V59    10.0   .     S
V11     V55    10.0   .     S
V11     V56    10.0   1_554     S
V12     V26    10.0   .     S
V12     V13    10.0   .     S
V12     V60    10.0   .     S
V12     V56    10.0   .     S
V12     V55    10.0   .     S
V13     V16    10.0   .     S
V13     V55    10.0   .     S
V13     V26    10.0   .     S
V13     V19    10.0   .     S
V13     V25    10.0   .     S
V14     V11    10.0   1_556     S
V14     V15    10.0   1_556     S
V14     V56    10.0   .     S
V14     V25    10.0   1_556     S
V14     V20    10.0   .     S
V14     V26    10.0   .     S
V15     V14    10.0   1_554     S
V15     V63    10.0   .     S
V15     V8    10.0   1_554     S
V15     V28    10.0   1_554     S
V15     V31    10.0   .     S
V15     V27    10.0   .     S
V16     V64    10.0   .     S
V16     V27    10.0   .     S
V16     V32    10.0   .     S
V16     V28    10.0   .     S
V17     V19    10.0   .     S
V17     V3    10.0   1_455     S
V17     V22    10.0   .     S
V17     V41    10.0   .     S
V17     V37    10.0   .     S
V17     V38    10.0   .     S
V18     V20    10.0   .     S
V18     V4    10.0   1_455     S
V18     V21    10.0   1_556     S
V18     V42    10.0   .     S
V18     V38    10.0   .     S
V18     V37    10.0   1_556     S
V19     V25    10.0   .     S
V19     V33    10.0   .     S
V19     V39    10.0   .     S
V19     V40    10.0   .     S
V20     V26    10.0   .     S
V20     V34    10.0   .     S
V20     V40    10.0   .     S
V20     V39    10.0   1_556     S
V21     V9    10.0   1_455     S
V21     V3    10.0   1_455     S
V21     V18    10.0   1_554     S
V21     V24    10.0   1_464     S
V21     V37    10.0   .     S
V21     V4    10.0   1_454     S
V22     V10    10.0   1_455     S
V22     V4    10.0   1_455     S
V22     V23    10.0   1_465     S
V22     V38    10.0   .     S
V22     V3    10.0   1_455     S
V23     V5    10.0   1_655     S
V23     V1    10.0   1_655     S
V23     V22    10.0   1_645     S
V23     V45    10.0   .     S
V23     V30    10.0   .     S
V23     V2    10.0   1_655     S
V24     V6    10.0   1_655     S
V24     V2    10.0   1_655     S
V24     V21    10.0   1_646     S
V24     V46    10.0   .     S
V24     V29    10.0   1_556     S
V24     V1    10.0   1_656     S
V25     V14    10.0   1_554     S
V25     V27    10.0   .     S
V25     V39    10.0   .     S
V26     V28    10.0   .     S
V26     V40    10.0   .     S
V27     V47    10.0   .     S
V27     V31    10.0   .     S
V28     V15    10.0   1_556     S
V28     V48    10.0   .     S
V28     V32    10.0   .     S
V29     V31    10.0   .     S
V29     V1    10.0   1_655     S
V29     V24    10.0   1_554     S
V29     V43    10.0   .     S
V29     V46    10.0   1_554     S
V29     V45    10.0   .     S
V30     V32    10.0   .     S
V30     V2    10.0   1_655     S
V30     V44    10.0   .     S
V30     V45    10.0   .     S
V30     V46    10.0   .     S
V31     V35    10.0   .     S
V31     V47    10.0   .     S
V31     V48    10.0   1_554     S
V32     V36    10.0   .     S
V32     V48    10.0   .     S
V32     V47    10.0   .     S
V33     V36    10.0   1_565     S
V33     V40    10.0   .     S
V33     V55    10.0   .     S
V33     V60    10.0   .     S
V33     V59    10.0   .     S
V34     V35    10.0   1_566     S
V34     V39    10.0   1_556     S
V34     V56    10.0   .     S
V34     V59    10.0   1_556     S
V34     V60    10.0   .     S
V35     V34    10.0   1_544     S
V35     V48    10.0   1_554     S
V35     V63    10.0   .     S
V35     V58    10.0   1_554     S
V35     V57    10.0   .     S
V36     V33    10.0   1_545     S
V36     V47    10.0   .     S
V36     V64    10.0   .     S
V36     V57    10.0   .     S
V36     V58    10.0   .     S
V37     V39    10.0   .     S
V37     V49    10.0   1_455     S
V37     V41    10.0   .     S
V37     V18    10.0   1_554     S
V38     V40    10.0   .     S
V38     V50    10.0   1_455     S
V38     V42    10.0   .     S
V39     V59    10.0   .     S
V39     V34    10.0   1_554     S
V39     V20    10.0   1_554     S
V40     V60    10.0   .     S
V41     V43    10.0   1_455     S
V41     V53    10.0   1_455     S
V41     V49    10.0   1_455     S
V41     V50    10.0   1_455     S
V42     V44    10.0   1_455     S
V42     V54    10.0   1_455     S
V42     V50    10.0   1_455     S
V42     V49    10.0   1_456     S
V43     V41    10.0   1_655     S
V43     V45    10.0   .     S
V43     V61    10.0   1_655     S
V43     V51    10.0   1_655     S
V43     V52    10.0   1_654     S
V44     V42    10.0   1_655     S
V44     V46    10.0   .     S
V44     V62    10.0   1_655     S
V44     V52    10.0   1_655     S
V44     V51    10.0   1_655     S
V45     V47    10.0   .     S
V45     V51    10.0   1_655     S
V46     V48    10.0   .     S
V46     V52    10.0   1_655     S
V46     V29    10.0   1_556     S
V47     V57    10.0   .     S
V48     V35    10.0   1_556     S
V48     V58    10.0   .     S
V48     V31    10.0   1_556     S
V49     V37    10.0   1_655     S
V49     V52    10.0   1_654     S
V49     V54    10.0   1_554     S
V49     V41    10.0   1_655     S
V49     V42    10.0   1_654     S
V50     V38    10.0   1_655     S
V50     V51    10.0   1_655     S
V50     V53    10.0   .     S
V50     V42    10.0   1_655     S
V50     V41    10.0   1_655     S
V51     V45    10.0   1_455     S
V51     V50    10.0   1_455     S
V51     V62    10.0   .     S
V51     V43    10.0   1_455     S
V51     V44    10.0   1_455     S
V52     V46    10.0   1_455     S
V52     V49    10.0   1_456     S
V52     V61    10.0   1_556     S
V52     V44    10.0   1_455     S
V52     V43    10.0   1_456     S
V53     V55    10.0   .     S
V53     V41    10.0   1_655     S
V54     V9    10.0   1_556     S
V54     V56    10.0   .     S
V54     V42    10.0   1_655     S
V54     V49    10.0   1_556     S
V55     V59    10.0   .     S
V56     V60    10.0   .     S
V56     V11    10.0   1_556     S
V57     V59    10.0   1_545     S
V57     V63    10.0   .     S
V58     V60    10.0   1_545     S
V58     V64    10.0   .     S
V58     V35    10.0   1_556     S
V59     V57    10.0   1_565     S
V59     V34    10.0   1_554     S
V60     V58    10.0   1_565     S
V61     V52    10.0   1_554     S
V61     V63    10.0   .     S
V61     V43    10.0   1_455     S
V61     V6    10.0   1_554     S
V62     V64    10.0   .     S
V62     V44    10.0   1_455     S
V63     V8    10.0   1_554     S
