data_wip
_audit_creation_date              2019-12-31
_audit_creation_method            'Pymatgen'
_symmetry_space_group_name_H-M    'P1'
_symmetry_Int_Tables_number       1
loop_
_symmetry_equiv_pos_as_xyz
  x,y,z
_cell_length_a                    54.7418
_cell_length_b                    54.7418
_cell_length_c                    28.2844
_cell_angle_alpha                 90.0
_cell_angle_beta                 90.0
_cell_angle_gamma                 90.0
loop_
_atom_site_label
_atom_site_type_symbol
_atom_site_fract_x
_atom_site_fract_y
_atom_site_fract_z
V1     V     0.3146   0.1854   0.125
V2     V     0.3146   0.1854   0.625
V3     V     0.1854   0.1854   0.375
V4     V     0.1854   0.1854   0.875
V5     V     0.3146   0.3146   0.375
V6     V     0.3146   0.3146   0.875
V7     V     0.1854   0.3146   0.125
V8     V     0.1854   0.3146   0.625
V9     V     0.5646   0.9354   0.25
V10     V     0.5646   0.9354   0.75
V11     V     0.5646   0.0646   0.0
V12     V     0.5646   0.0646   0.5
V13     V     0.4354   0.9354   0.0
V14     V     0.4354   0.9354   0.5
V15     V     0.4354   0.0646   0.25
V16     V     0.4354   0.0646   0.75
V17     V     0.9354   0.9354   0.25
V18     V     0.9354   0.9354   0.75
V19     V     0.9354   0.0646   0.0
V20     V     0.9354   0.0646   0.5
V21     V     0.0646   0.9354   0.0
V22     V     0.0646   0.9354   0.5
V23     V     0.0646   0.0646   0.25
V24     V     0.0646   0.0646   0.75
V25     V     0.6854   0.1854   0.375
V26     V     0.6854   0.1854   0.875
V27     V     0.8146   0.1854   0.125
V28     V     0.8146   0.1854   0.625
V29     V     0.6854   0.3146   0.125
V30     V     0.6854   0.3146   0.625
V31     V     0.8146   0.3146   0.375
V32     V     0.8146   0.3146   0.875
V33     V     0.4354   0.4354   0.0
V34     V     0.4354   0.4354   0.5
V35     V     0.4354   0.5646   0.25
V36     V     0.4354   0.5646   0.75
V37     V     0.5646   0.4354   0.25
V38     V     0.5646   0.4354   0.75
V39     V     0.5646   0.5646   0.0
V40     V     0.5646   0.5646   0.5
V41     V     0.6854   0.8146   0.375
V42     V     0.6854   0.8146   0.875
V43     V     0.8146   0.8146   0.125
V44     V     0.8146   0.8146   0.625
V45     V     0.6854   0.6854   0.125
V46     V     0.6854   0.6854   0.625
V47     V     0.8146   0.6854   0.375
V48     V     0.8146   0.6854   0.875
V49     V     0.9354   0.4354   0.25
V50     V     0.9354   0.4354   0.75
V51     V     0.9354   0.5646   0.0
V52     V     0.9354   0.5646   0.5
V53     V     0.0646   0.4354   0.0
V54     V     0.0646   0.4354   0.5
V55     V     0.0646   0.5646   0.25
V56     V     0.0646   0.5646   0.75
V57     V     0.3146   0.8146   0.125
V58     V     0.3146   0.8146   0.625
V59     V     0.1854   0.8146   0.375
V60     V     0.1854   0.8146   0.875
V61     V     0.3146   0.6854   0.375
V62     V     0.3146   0.6854   0.875
V63     V     0.1854   0.6854   0.125
V64     V     0.1854   0.6854   0.625
loop_
_geom_bond_atom_site_label_1
_geom_bond_atom_site_label_2
_geom_bond_distance
_geom_bond_site_symmetry_2
_ccdc_geom_bond_type
V1     V3    10.0   .     S
V1     V4    10.0   1_554     S
V1     V7    10.0   .     S
V1     V6    10.0   1_554     S
V1     V5    10.0   .     S
V1     V15    10.0   .     S
V2     V4    10.0   .     S
V2     V3    10.0   .     S
V2     V8    10.0   .     S
V2     V5    10.0   .     S
V2     V6    10.0   .     S
V2     V16    10.0   .     S
V3     V5    10.0   .     S
V3     V8    10.0   .     S
V3     V7    10.0   .     S
V3     V23    10.0   .     S
V4     V1    10.0   1_556     S
V4     V6    10.0   .     S
V4     V7    10.0   1_556     S
V4     V8    10.0   .     S
V4     V24    10.0   .     S
V5     V8    10.0   .     S
V5     V7    10.0   .     S
V5     V34    10.0   .     S
V6     V1    10.0   1_556     S
V6     V7    10.0   1_556     S
V6     V8    10.0   .     S
V6     V33    10.0   1_556     S
V7     V4    10.0   1_554     S
V7     V6    10.0   1_554     S
V7     V53    10.0   .     S
V8     V54    10.0   .     S
V9     V12    10.0   1_565     S
V9     V11    10.0   1_565     S
V9     V15    10.0   1_565     S
V9     V13    10.0   .     S
V9     V14    10.0   .     S
V9     V41    10.0   .     S
V10     V11    10.0   1_566     S
V10     V12    10.0   1_565     S
V10     V16    10.0   1_565     S
V10     V14    10.0   .     S
V10     V13    10.0   1_556     S
V10     V42    10.0   .     S
V11     V10    10.0   1_544     S
V11     V9    10.0   1_545     S
V11     V13    10.0   1_545     S
V11     V16    10.0   1_554     S
V11     V15    10.0   .     S
V11     V26    10.0   1_554     S
V12     V9    10.0   1_545     S
V12     V10    10.0   1_545     S
V12     V14    10.0   1_545     S
V12     V15    10.0   .     S
V12     V16    10.0   .     S
V12     V25    10.0   .     S
V13     V15    10.0   1_565     S
V13     V16    10.0   1_564     S
V13     V11    10.0   1_565     S
V13     V10    10.0   1_554     S
V13     V57    10.0   .     S
V14     V16    10.0   1_565     S
V14     V15    10.0   1_565     S
V14     V12    10.0   1_565     S
V14     V58    10.0   .     S
V15     V13    10.0   1_545     S
V15     V14    10.0   1_545     S
V15     V9    10.0   1_545     S
V16     V14    10.0   1_545     S
V16     V13    10.0   1_546     S
V16     V10    10.0   1_545     S
V16     V11    10.0   1_556     S
V17     V19    10.0   1_565     S
V17     V20    10.0   1_565     S
V17     V23    10.0   1_665     S
V17     V22    10.0   1_655     S
V17     V21    10.0   1_655     S
V17     V43    10.0   .     S
V18     V20    10.0   1_565     S
V18     V19    10.0   1_566     S
V18     V24    10.0   1_665     S
V18     V21    10.0   1_656     S
V18     V22    10.0   1_655     S
V18     V44    10.0   .     S
V19     V17    10.0   1_545     S
V19     V18    10.0   1_544     S
V19     V21    10.0   1_645     S
V19     V24    10.0   1_654     S
V19     V23    10.0   1_655     S
V19     V27    10.0   .     S
V20     V18    10.0   1_545     S
V20     V17    10.0   1_545     S
V20     V22    10.0   1_645     S
V20     V23    10.0   1_655     S
V20     V24    10.0   1_655     S
V20     V28    10.0   .     S
V21     V23    10.0   1_565     S
V21     V24    10.0   1_564     S
V21     V18    10.0   1_454     S
V21     V17    10.0   1_455     S
V21     V19    10.0   1_465     S
V21     V60    10.0   1_554     S
V22     V24    10.0   1_565     S
V22     V23    10.0   1_565     S
V22     V17    10.0   1_455     S
V22     V18    10.0   1_455     S
V22     V20    10.0   1_465     S
V22     V59    10.0   .     S
V23     V21    10.0   1_545     S
V23     V22    10.0   1_545     S
V23     V17    10.0   1_445     S
V23     V20    10.0   1_455     S
V23     V19    10.0   1_455     S
V24     V22    10.0   1_545     S
V24     V21    10.0   1_546     S
V24     V18    10.0   1_445     S
V24     V19    10.0   1_456     S
V24     V20    10.0   1_455     S
V25     V27    10.0   .     S
V25     V28    10.0   .     S
V25     V29    10.0   .     S
V25     V31    10.0   .     S
V25     V30    10.0   .     S
V26     V28    10.0   .     S
V26     V27    10.0   1_556     S
V26     V30    10.0   .     S
V26     V32    10.0   .     S
V26     V29    10.0   1_556     S
V26     V11    10.0   1_556     S
V27     V26    10.0   1_554     S
V27     V29    10.0   .     S
V27     V31    10.0   .     S
V27     V32    10.0   1_554     S
V28     V30    10.0   .     S
V28     V32    10.0   .     S
V28     V31    10.0   .     S
V29     V31    10.0   .     S
V29     V32    10.0   1_554     S
V29     V26    10.0   1_554     S
V29     V37    10.0   .     S
V30     V32    10.0   .     S
V30     V31    10.0   .     S
V30     V38    10.0   .     S
V31     V49    10.0   .     S
V32     V29    10.0   1_556     S
V32     V27    10.0   1_556     S
V32     V50    10.0   .     S
V33     V6    10.0   1_554     S
V33     V36    10.0   1_554     S
V33     V35    10.0   .     S
V33     V39    10.0   .     S
V33     V37    10.0   .     S
V33     V38    10.0   1_554     S
V34     V35    10.0   .     S
V34     V36    10.0   .     S
V34     V40    10.0   .     S
V34     V38    10.0   .     S
V34     V37    10.0   .     S
V35     V37    10.0   .     S
V35     V39    10.0   .     S
V35     V40    10.0   .     S
V35     V61    10.0   .     S
V36     V33    10.0   1_556     S
V36     V38    10.0   .     S
V36     V40    10.0   .     S
V36     V39    10.0   1_556     S
V36     V62    10.0   .     S
V37     V39    10.0   .     S
V37     V40    10.0   .     S
V38     V33    10.0   1_556     S
V38     V40    10.0   .     S
V38     V39    10.0   1_556     S
V39     V36    10.0   1_554     S
V39     V38    10.0   1_554     S
V39     V45    10.0   .     S
V40     V46    10.0   .     S
V41     V43    10.0   .     S
V41     V44    10.0   .     S
V41     V46    10.0   .     S
V41     V45    10.0   .     S
V41     V47    10.0   .     S
V42     V44    10.0   .     S
V42     V43    10.0   1_556     S
V42     V45    10.0   1_556     S
V42     V46    10.0   .     S
V42     V48    10.0   .     S
V43     V42    10.0   1_554     S
V43     V45    10.0   .     S
V43     V48    10.0   1_554     S
V43     V47    10.0   .     S
V44     V46    10.0   .     S
V44     V47    10.0   .     S
V44     V48    10.0   .     S
V45     V47    10.0   .     S
V45     V48    10.0   1_554     S
V45     V42    10.0   1_554     S
V46     V48    10.0   .     S
V46     V47    10.0   .     S
V47     V52    10.0   .     S
V48     V45    10.0   1_556     S
V48     V43    10.0   1_556     S
V48     V51    10.0   1_556     S
V49     V52    10.0   .     S
V49     V51    10.0   .     S
V49     V54    10.0   1_655     S
V49     V55    10.0   1_655     S
V49     V53    10.0   1_655     S
V50     V51    10.0   1_556     S
V50     V52    10.0   .     S
V50     V53    10.0   1_656     S
V50     V56    10.0   1_655     S
V50     V54    10.0   1_655     S
V51     V50    10.0   1_554     S
V51     V53    10.0   1_655     S
V51     V56    10.0   1_654     S
V51     V55    10.0   1_655     S
V51     V48    10.0   1_554     S
V52     V54    10.0   1_655     S
V52     V55    10.0   1_655     S
V52     V56    10.0   1_655     S
V53     V55    10.0   .     S
V53     V56    10.0   1_554     S
V53     V51    10.0   1_455     S
V53     V50    10.0   1_454     S
V53     V49    10.0   1_455     S
V54     V56    10.0   .     S
V54     V55    10.0   .     S
V54     V52    10.0   1_455     S
V54     V49    10.0   1_455     S
V54     V50    10.0   1_455     S
V55     V49    10.0   1_455     S
V55     V52    10.0   1_455     S
V55     V51    10.0   1_455     S
V55     V63    10.0   .     S
V56     V53    10.0   1_556     S
V56     V50    10.0   1_455     S
V56     V51    10.0   1_456     S
V56     V52    10.0   1_455     S
V56     V64    10.0   .     S
V57     V60    10.0   1_554     S
V57     V59    10.0   .     S
V57     V63    10.0   .     S
V57     V61    10.0   .     S
V57     V62    10.0   1_554     S
V58     V59    10.0   .     S
V58     V60    10.0   .     S
V58     V64    10.0   .     S
V58     V62    10.0   .     S
V58     V61    10.0   .     S
V59     V61    10.0   .     S
V59     V63    10.0   .     S
V59     V64    10.0   .     S
V60     V57    10.0   1_556     S
V60     V62    10.0   .     S
V60     V64    10.0   .     S
V60     V63    10.0   1_556     S
V60     V21    10.0   1_556     S
V61     V63    10.0   .     S
V61     V64    10.0   .     S
V62     V64    10.0   .     S
V62     V63    10.0   1_556     S
V62     V57    10.0   1_556     S
V63     V62    10.0   1_554     S
V63     V60    10.0   1_554     S
