data_wis
_audit_creation_date              2019-12-31
_audit_creation_method            'Pymatgen'
_symmetry_space_group_name_H-M    'P1'
_symmetry_Int_Tables_number       1
loop_
_symmetry_equiv_pos_as_xyz
  x,y,z
_cell_length_a                    39.7088
_cell_length_b                    39.7088
_cell_length_c                    70.4498
_cell_angle_alpha                 90.0
_cell_angle_beta                 90.0
_cell_angle_gamma                 90.0
loop_
_atom_site_label
_atom_site_type_symbol
_atom_site_fract_x
_atom_site_fract_y
_atom_site_fract_z
V1     V     0.3598   0.0634   0.1887
V2     V     0.3598   0.5634   0.1887
V3     V     0.8598   0.0634   0.1887
V4     V     0.8598   0.5634   0.1887
V5     V     0.3598   0.4366   0.3113
V6     V     0.3598   0.9366   0.3113
V7     V     0.8598   0.4366   0.3113
V8     V     0.8598   0.9366   0.3113
V9     V     0.3902   0.1866   0.3113
V10     V     0.3902   0.6866   0.3113
V11     V     0.8902   0.1866   0.3113
V12     V     0.8902   0.6866   0.3113
V13     V     0.3902   0.3134   0.1887
V14     V     0.3902   0.8134   0.1887
V15     V     0.8902   0.3134   0.1887
V16     V     0.8902   0.8134   0.1887
V17     V     0.1098   0.0634   0.3113
V18     V     0.1098   0.5634   0.3113
V19     V     0.6098   0.0634   0.3113
V20     V     0.6098   0.5634   0.3113
V21     V     0.1098   0.4366   0.1887
V22     V     0.1098   0.9366   0.1887
V23     V     0.6098   0.4366   0.1887
V24     V     0.6098   0.9366   0.1887
V25     V     0.1402   0.3134   0.3113
V26     V     0.1402   0.8134   0.3113
V27     V     0.6402   0.3134   0.3113
V28     V     0.6402   0.8134   0.3113
V29     V     0.1402   0.1866   0.1887
V30     V     0.1402   0.6866   0.1887
V31     V     0.6402   0.1866   0.1887
V32     V     0.6402   0.6866   0.1887
V33     V     0.0616   0.2348   0.4387
V34     V     0.0616   0.7348   0.4387
V35     V     0.5616   0.2348   0.4387
V36     V     0.5616   0.7348   0.4387
V37     V     0.1884   0.2348   0.5613
V38     V     0.1884   0.7348   0.5613
V39     V     0.6884   0.2348   0.5613
V40     V     0.6884   0.7348   0.5613
V41     V     0.4384   0.2652   0.5613
V42     V     0.4384   0.7652   0.5613
V43     V     0.9384   0.2652   0.5613
V44     V     0.9384   0.7652   0.5613
V45     V     0.3116   0.2652   0.4387
V46     V     0.3116   0.7652   0.4387
V47     V     0.8116   0.2652   0.4387
V48     V     0.8116   0.7652   0.4387
V49     V     0.0616   0.4848   0.5613
V50     V     0.0616   0.9848   0.5613
V51     V     0.5616   0.4848   0.5613
V52     V     0.5616   0.9848   0.5613
V53     V     0.1884   0.4848   0.4387
V54     V     0.1884   0.9848   0.4387
V55     V     0.6884   0.4848   0.4387
V56     V     0.6884   0.9848   0.4387
V57     V     0.4384   0.0152   0.4387
V58     V     0.4384   0.5152   0.4387
V59     V     0.9384   0.0152   0.4387
V60     V     0.9384   0.5152   0.4387
V61     V     0.3116   0.0152   0.5613
V62     V     0.3116   0.5152   0.5613
V63     V     0.8116   0.0152   0.5613
V64     V     0.8116   0.5152   0.5613
V65     V     0.1098   0.1866   0.8113
V66     V     0.1098   0.6866   0.8113
V67     V     0.6098   0.1866   0.8113
V68     V     0.6098   0.6866   0.8113
V69     V     0.1098   0.3134   0.6887
V70     V     0.1098   0.8134   0.6887
V71     V     0.6098   0.3134   0.6887
V72     V     0.6098   0.8134   0.6887
V73     V     0.1402   0.4366   0.8113
V74     V     0.1402   0.9366   0.8113
V75     V     0.6402   0.4366   0.8113
V76     V     0.6402   0.9366   0.8113
V77     V     0.1402   0.0634   0.6887
V78     V     0.1402   0.5634   0.6887
V79     V     0.6402   0.0634   0.6887
V80     V     0.6402   0.5634   0.6887
V81     V     0.3598   0.3134   0.8113
V82     V     0.3598   0.8134   0.8113
V83     V     0.8598   0.3134   0.8113
V84     V     0.8598   0.8134   0.8113
V85     V     0.3598   0.1866   0.6887
V86     V     0.3598   0.6866   0.6887
V87     V     0.8598   0.1866   0.6887
V88     V     0.8598   0.6866   0.6887
V89     V     0.3902   0.0634   0.8113
V90     V     0.3902   0.5634   0.8113
V91     V     0.8902   0.0634   0.8113
V92     V     0.8902   0.5634   0.8113
V93     V     0.3902   0.4366   0.6887
V94     V     0.3902   0.9366   0.6887
V95     V     0.8902   0.4366   0.6887
V96     V     0.8902   0.9366   0.6887
V97     V     0.4384   0.2348   0.9387
V98     V     0.4384   0.7348   0.9387
V99     V     0.9384   0.2348   0.9387
V100     V     0.9384   0.7348   0.9387
V101     V     0.3116   0.2348   0.0613
V102     V     0.3116   0.7348   0.0613
V103     V     0.8116   0.2348   0.0613
V104     V     0.8116   0.7348   0.0613
V105     V     0.1884   0.2652   0.9387
V106     V     0.1884   0.7652   0.9387
V107     V     0.6884   0.2652   0.9387
V108     V     0.6884   0.7652   0.9387
V109     V     0.0616   0.2652   0.0613
V110     V     0.0616   0.7652   0.0613
V111     V     0.5616   0.2652   0.0613
V112     V     0.5616   0.7652   0.0613
V113     V     0.0616   0.0152   0.9387
V114     V     0.0616   0.5152   0.9387
V115     V     0.5616   0.0152   0.9387
V116     V     0.5616   0.5152   0.9387
V117     V     0.1884   0.0152   0.0613
V118     V     0.1884   0.5152   0.0613
V119     V     0.6884   0.0152   0.0613
V120     V     0.6884   0.5152   0.0613
V121     V     0.3116   0.4848   0.9387
V122     V     0.3116   0.9848   0.9387
V123     V     0.8116   0.4848   0.9387
V124     V     0.8116   0.9848   0.9387
V125     V     0.4384   0.4848   0.0613
V126     V     0.4384   0.9848   0.0613
V127     V     0.9384   0.4848   0.0613
V128     V     0.9384   0.9848   0.0613
loop_
_geom_bond_atom_site_label_1
_geom_bond_atom_site_label_2
_geom_bond_distance
_geom_bond_site_symmetry_2
_ccdc_geom_bond_type
V1     V6    10.0   1_545     S
V1     V14    10.0   1_545     S
V1     V13    10.0   .     S
V1     V9    10.0   .     S
V1     V29    10.0   .     S
V1     V126    10.0   1_545     S
V2     V5    10.0   .     S
V2     V13    10.0   .     S
V2     V14    10.0   .     S
V2     V10    10.0   .     S
V2     V30    10.0   .     S
V2     V125    10.0   .     S
V3     V8    10.0   1_545     S
V3     V16    10.0   1_545     S
V3     V15    10.0   .     S
V3     V11    10.0   .     S
V3     V31    10.0   .     S
V3     V128    10.0   1_545     S
V4     V7    10.0   .     S
V4     V15    10.0   .     S
V4     V16    10.0   .     S
V4     V12    10.0   .     S
V4     V32    10.0   .     S
V4     V127    10.0   .     S
V5     V13    10.0   .     S
V5     V9    10.0   .     S
V5     V10    10.0   .     S
V5     V25    10.0   .     S
V5     V58    10.0   .     S
V6     V1    10.0   1_565     S
V6     V14    10.0   .     S
V6     V10    10.0   .     S
V6     V9    10.0   1_565     S
V6     V26    10.0   .     S
V6     V57    10.0   1_565     S
V7     V15    10.0   .     S
V7     V11    10.0   .     S
V7     V12    10.0   .     S
V7     V27    10.0   .     S
V7     V60    10.0   .     S
V8     V3    10.0   1_565     S
V8     V16    10.0   .     S
V8     V12    10.0   .     S
V8     V11    10.0   1_565     S
V8     V28    10.0   .     S
V8     V59    10.0   1_565     S
V9     V6    10.0   1_545     S
V9     V13    10.0   .     S
V9     V19    10.0   .     S
V9     V45    10.0   .     S
V10     V14    10.0   .     S
V10     V20    10.0   .     S
V10     V46    10.0   .     S
V11     V8    10.0   1_545     S
V11     V15    10.0   .     S
V11     V17    10.0   1_655     S
V11     V47    10.0   .     S
V12     V16    10.0   .     S
V12     V18    10.0   1_655     S
V12     V48    10.0   .     S
V13     V23    10.0   .     S
V13     V101    10.0   .     S
V14     V1    10.0   1_565     S
V14     V24    10.0   .     S
V14     V102    10.0   .     S
V15     V21    10.0   1_655     S
V15     V103    10.0   .     S
V16     V3    10.0   1_565     S
V16     V22    10.0   1_655     S
V16     V104    10.0   .     S
V17     V26    10.0   1_545     S
V17     V22    10.0   1_545     S
V17     V25    10.0   .     S
V17     V29    10.0   .     S
V17     V11    10.0   1_455     S
V17     V54    10.0   1_545     S
V18     V25    10.0   .     S
V18     V21    10.0   .     S
V18     V26    10.0   .     S
V18     V30    10.0   .     S
V18     V12    10.0   1_455     S
V18     V53    10.0   .     S
V19     V28    10.0   1_545     S
V19     V24    10.0   1_545     S
V19     V27    10.0   .     S
V19     V31    10.0   .     S
V19     V56    10.0   1_545     S
V20     V27    10.0   .     S
V20     V23    10.0   .     S
V20     V28    10.0   .     S
V20     V32    10.0   .     S
V20     V55    10.0   .     S
V21     V25    10.0   .     S
V21     V29    10.0   .     S
V21     V30    10.0   .     S
V21     V15    10.0   1_455     S
V21     V118    10.0   .     S
V22     V26    10.0   .     S
V22     V30    10.0   .     S
V22     V17    10.0   1_565     S
V22     V29    10.0   1_565     S
V22     V16    10.0   1_455     S
V22     V117    10.0   1_565     S
V23     V27    10.0   .     S
V23     V31    10.0   .     S
V23     V32    10.0   .     S
V23     V120    10.0   .     S
V24     V28    10.0   .     S
V24     V32    10.0   .     S
V24     V19    10.0   1_565     S
V24     V31    10.0   1_565     S
V24     V119    10.0   1_565     S
V25     V29    10.0   .     S
V25     V33    10.0   .     S
V26     V17    10.0   1_565     S
V26     V30    10.0   .     S
V26     V34    10.0   .     S
V27     V31    10.0   .     S
V27     V35    10.0   .     S
V28     V19    10.0   1_565     S
V28     V32    10.0   .     S
V28     V36    10.0   .     S
V29     V22    10.0   1_545     S
V29     V109    10.0   .     S
V30     V110    10.0   .     S
V31     V24    10.0   1_545     S
V31     V111    10.0   .     S
V32     V112    10.0   .     S
V33     V45    10.0   .     S
V33     V37    10.0   .     S
V33     V47    10.0   1_455     S
V33     V43    10.0   1_455     S
V33     V59    10.0   1_455     S
V34     V46    10.0   .     S
V34     V38    10.0   .     S
V34     V48    10.0   1_455     S
V34     V44    10.0   1_455     S
V34     V60    10.0   1_455     S
V35     V47    10.0   .     S
V35     V39    10.0   .     S
V35     V45    10.0   .     S
V35     V41    10.0   .     S
V35     V57    10.0   .     S
V36     V48    10.0   .     S
V36     V40    10.0   .     S
V36     V46    10.0   .     S
V36     V42    10.0   .     S
V36     V58    10.0   .     S
V37     V45    10.0   .     S
V37     V41    10.0   .     S
V37     V43    10.0   1_455     S
V37     V61    10.0   .     S
V37     V69    10.0   .     S
V38     V46    10.0   .     S
V38     V42    10.0   .     S
V38     V44    10.0   1_455     S
V38     V62    10.0   .     S
V38     V70    10.0   .     S
V39     V47    10.0   .     S
V39     V43    10.0   .     S
V39     V41    10.0   .     S
V39     V63    10.0   .     S
V39     V71    10.0   .     S
V40     V48    10.0   .     S
V40     V44    10.0   .     S
V40     V42    10.0   .     S
V40     V64    10.0   .     S
V40     V72    10.0   .     S
V41     V45    10.0   .     S
V41     V51    10.0   .     S
V41     V85    10.0   .     S
V42     V46    10.0   .     S
V42     V52    10.0   .     S
V42     V86    10.0   .     S
V43     V47    10.0   .     S
V43     V33    10.0   1_655     S
V43     V37    10.0   1_655     S
V43     V49    10.0   1_655     S
V43     V87    10.0   .     S
V44     V48    10.0   .     S
V44     V34    10.0   1_655     S
V44     V38    10.0   1_655     S
V44     V50    10.0   1_655     S
V44     V88    10.0   .     S
V45     V53    10.0   .     S
V46     V54    10.0   .     S
V47     V33    10.0   1_655     S
V47     V55    10.0   .     S
V48     V34    10.0   1_655     S
V48     V56    10.0   .     S
V49     V62    10.0   .     S
V49     V53    10.0   .     S
V49     V60    10.0   1_455     S
V49     V64    10.0   1_455     S
V49     V43    10.0   1_455     S
V49     V78    10.0   .     S
V50     V61    10.0   1_565     S
V50     V54    10.0   .     S
V50     V59    10.0   1_465     S
V50     V63    10.0   1_465     S
V50     V44    10.0   1_455     S
V50     V77    10.0   1_565     S
V51     V64    10.0   .     S
V51     V55    10.0   .     S
V51     V58    10.0   .     S
V51     V62    10.0   .     S
V51     V80    10.0   .     S
V52     V63    10.0   1_565     S
V52     V56    10.0   .     S
V52     V57    10.0   1_565     S
V52     V61    10.0   1_565     S
V52     V79    10.0   1_565     S
V53     V58    10.0   .     S
V53     V62    10.0   .     S
V53     V60    10.0   1_455     S
V54     V57    10.0   1_565     S
V54     V61    10.0   1_565     S
V54     V59    10.0   1_465     S
V54     V17    10.0   1_565     S
V55     V60    10.0   .     S
V55     V64    10.0   .     S
V55     V58    10.0   .     S
V56     V59    10.0   1_565     S
V56     V63    10.0   1_565     S
V56     V57    10.0   1_565     S
V56     V19    10.0   1_565     S
V57     V54    10.0   1_545     S
V57     V56    10.0   1_545     S
V57     V52    10.0   1_545     S
V57     V61    10.0   .     S
V57     V6    10.0   1_545     S
V58     V62    10.0   .     S
V59     V56    10.0   1_545     S
V59     V54    10.0   1_645     S
V59     V50    10.0   1_645     S
V59     V63    10.0   .     S
V59     V33    10.0   1_655     S
V59     V8    10.0   1_545     S
V60     V53    10.0   1_655     S
V60     V49    10.0   1_655     S
V60     V64    10.0   .     S
V60     V34    10.0   1_655     S
V61     V54    10.0   1_545     S
V61     V50    10.0   1_545     S
V61     V52    10.0   1_545     S
V61     V94    10.0   1_545     S
V62     V93    10.0   .     S
V63     V56    10.0   1_545     S
V63     V52    10.0   1_545     S
V63     V50    10.0   1_645     S
V63     V96    10.0   1_545     S
V64     V49    10.0   1_655     S
V64     V95    10.0   .     S
V65     V74    10.0   1_545     S
V65     V77    10.0   .     S
V65     V69    10.0   .     S
V65     V73    10.0   .     S
V65     V91    10.0   1_455     S
V65     V105    10.0   .     S
V66     V73    10.0   .     S
V66     V78    10.0   .     S
V66     V70    10.0   .     S
V66     V74    10.0   .     S
V66     V92    10.0   1_455     S
V66     V106    10.0   .     S
V67     V76    10.0   1_545     S
V67     V79    10.0   .     S
V67     V71    10.0   .     S
V67     V75    10.0   .     S
V67     V89    10.0   .     S
V67     V107    10.0   .     S
V68     V75    10.0   .     S
V68     V80    10.0   .     S
V68     V72    10.0   .     S
V68     V76    10.0   .     S
V68     V90    10.0   .     S
V68     V108    10.0   .     S
V69     V77    10.0   .     S
V69     V73    10.0   .     S
V69     V78    10.0   .     S
V69     V95    10.0   1_455     S
V70     V78    10.0   .     S
V70     V74    10.0   .     S
V70     V77    10.0   1_565     S
V70     V96    10.0   1_455     S
V71     V79    10.0   .     S
V71     V75    10.0   .     S
V71     V80    10.0   .     S
V71     V93    10.0   .     S
V72     V80    10.0   .     S
V72     V76    10.0   .     S
V72     V79    10.0   1_565     S
V72     V94    10.0   .     S
V73     V78    10.0   .     S
V73     V81    10.0   .     S
V73     V114    10.0   .     S
V74     V65    10.0   1_565     S
V74     V77    10.0   1_565     S
V74     V82    10.0   .     S
V74     V113    10.0   1_565     S
V75     V80    10.0   .     S
V75     V83    10.0   .     S
V75     V116    10.0   .     S
V76     V67    10.0   1_565     S
V76     V79    10.0   1_565     S
V76     V84    10.0   .     S
V76     V115    10.0   1_565     S
V77     V70    10.0   1_545     S
V77     V74    10.0   1_545     S
V77     V85    10.0   .     S
V77     V50    10.0   1_545     S
V78     V86    10.0   .     S
V79     V72    10.0   1_545     S
V79     V76    10.0   1_545     S
V79     V87    10.0   .     S
V79     V52    10.0   1_545     S
V80     V88    10.0   .     S
V81     V89    10.0   .     S
V81     V85    10.0   .     S
V81     V90    10.0   .     S
V81     V93    10.0   .     S
V81     V97    10.0   .     S
V82     V90    10.0   .     S
V82     V86    10.0   .     S
V82     V89    10.0   1_565     S
V82     V94    10.0   .     S
V82     V98    10.0   .     S
V83     V91    10.0   .     S
V83     V87    10.0   .     S
V83     V92    10.0   .     S
V83     V95    10.0   .     S
V83     V99    10.0   .     S
V84     V92    10.0   .     S
V84     V88    10.0   .     S
V84     V91    10.0   1_565     S
V84     V96    10.0   .     S
V84     V100    10.0   .     S
V85     V89    10.0   .     S
V85     V94    10.0   1_545     S
V85     V93    10.0   .     S
V86     V90    10.0   .     S
V86     V93    10.0   .     S
V86     V94    10.0   .     S
V87     V91    10.0   .     S
V87     V96    10.0   1_545     S
V87     V95    10.0   .     S
V88     V92    10.0   .     S
V88     V95    10.0   .     S
V88     V96    10.0   .     S
V89     V82    10.0   1_545     S
V89     V94    10.0   1_545     S
V89     V122    10.0   1_545     S
V90     V93    10.0   .     S
V90     V121    10.0   .     S
V91     V84    10.0   1_545     S
V91     V96    10.0   1_545     S
V91     V65    10.0   1_655     S
V91     V124    10.0   1_545     S
V92     V95    10.0   .     S
V92     V66    10.0   1_655     S
V92     V123    10.0   .     S
V94     V85    10.0   1_565     S
V94     V89    10.0   1_565     S
V94     V61    10.0   1_565     S
V95     V69    10.0   1_655     S
V96     V87    10.0   1_565     S
V96     V91    10.0   1_565     S
V96     V70    10.0   1_655     S
V96     V63    10.0   1_565     S
V97     V101    10.0   1_556     S
V97     V107    10.0   .     S
V97     V111    10.0   1_556     S
V97     V105    10.0   .     S
V97     V115    10.0   .     S
V98     V102    10.0   1_556     S
V98     V108    10.0   .     S
V98     V112    10.0   1_556     S
V98     V106    10.0   .     S
V98     V116    10.0   .     S
V99     V103    10.0   1_556     S
V99     V105    10.0   1_655     S
V99     V109    10.0   1_656     S
V99     V107    10.0   .     S
V99     V113    10.0   1_655     S
V100     V104    10.0   1_556     S
V100     V106    10.0   1_655     S
V100     V110    10.0   1_656     S
V100     V108    10.0   .     S
V100     V114    10.0   1_655     S
V101     V97    10.0   1_554     S
V101     V111    10.0   .     S
V101     V109    10.0   .     S
V101     V105    10.0   1_554     S
V101     V117    10.0   .     S
V102     V98    10.0   1_554     S
V102     V112    10.0   .     S
V102     V110    10.0   .     S
V102     V106    10.0   1_554     S
V102     V118    10.0   .     S
V103     V99    10.0   1_554     S
V103     V109    10.0   1_655     S
V103     V111    10.0   .     S
V103     V107    10.0   1_554     S
V103     V119    10.0   .     S
V104     V100    10.0   1_554     S
V104     V110    10.0   1_655     S
V104     V112    10.0   .     S
V104     V108    10.0   1_554     S
V104     V120    10.0   .     S
V105     V99    10.0   1_455     S
V105     V101    10.0   1_556     S
V105     V109    10.0   1_556     S
V105     V121    10.0   .     S
V106     V100    10.0   1_455     S
V106     V102    10.0   1_556     S
V106     V110    10.0   1_556     S
V106     V122    10.0   .     S
V107     V103    10.0   1_556     S
V107     V111    10.0   1_556     S
V107     V123    10.0   .     S
V108     V104    10.0   1_556     S
V108     V112    10.0   1_556     S
V108     V124    10.0   .     S
V109     V99    10.0   1_454     S
V109     V103    10.0   1_455     S
V109     V105    10.0   1_554     S
V109     V127    10.0   1_455     S
V110     V100    10.0   1_454     S
V110     V104    10.0   1_455     S
V110     V106    10.0   1_554     S
V110     V128    10.0   1_455     S
V111     V97    10.0   1_554     S
V111     V107    10.0   1_554     S
V111     V125    10.0   .     S
V112     V98    10.0   1_554     S
V112     V108    10.0   1_554     S
V112     V126    10.0   .     S
V113     V122    10.0   1_545     S
V113     V117    10.0   1_556     S
V113     V124    10.0   1_445     S
V113     V128    10.0   1_446     S
V113     V99    10.0   1_455     S
V113     V74    10.0   1_545     S
V114     V121    10.0   .     S
V114     V118    10.0   1_556     S
V114     V123    10.0   1_455     S
V114     V127    10.0   1_456     S
V114     V100    10.0   1_455     S
V115     V124    10.0   1_545     S
V115     V119    10.0   1_556     S
V115     V122    10.0   1_545     S
V115     V126    10.0   1_546     S
V115     V76    10.0   1_545     S
V116     V123    10.0   .     S
V116     V120    10.0   1_556     S
V116     V121    10.0   .     S
V116     V125    10.0   1_556     S
V117     V122    10.0   1_544     S
V117     V126    10.0   1_545     S
V117     V113    10.0   1_554     S
V117     V128    10.0   1_445     S
V117     V22    10.0   1_545     S
V118     V121    10.0   1_554     S
V118     V125    10.0   .     S
V118     V114    10.0   1_554     S
V118     V127    10.0   1_455     S
V119     V124    10.0   1_544     S
V119     V128    10.0   1_545     S
V119     V115    10.0   1_554     S
V119     V126    10.0   1_545     S
V119     V24    10.0   1_545     S
V120     V123    10.0   1_554     S
V120     V127    10.0   .     S
V120     V116    10.0   1_554     S
V120     V125    10.0   .     S
V121     V118    10.0   1_556     S
V121     V125    10.0   1_556     S
V122     V113    10.0   1_565     S
V122     V117    10.0   1_566     S
V122     V126    10.0   1_556     S
V122     V115    10.0   1_565     S
V122     V89    10.0   1_565     S
V123     V120    10.0   1_556     S
V123     V127    10.0   1_556     S
V123     V114    10.0   1_655     S
V124     V115    10.0   1_565     S
V124     V119    10.0   1_566     S
V124     V128    10.0   1_556     S
V124     V113    10.0   1_665     S
V124     V91    10.0   1_565     S
V125     V121    10.0   1_554     S
V125     V116    10.0   1_554     S
V126     V117    10.0   1_565     S
V126     V122    10.0   1_554     S
V126     V115    10.0   1_564     S
V126     V119    10.0   1_565     S
V126     V1    10.0   1_565     S
V127     V123    10.0   1_554     S
V127     V114    10.0   1_654     S
V127     V118    10.0   1_655     S
V127     V109    10.0   1_655     S
V128     V119    10.0   1_565     S
V128     V124    10.0   1_554     S
V128     V113    10.0   1_664     S
V128     V117    10.0   1_665     S
V128     V110    10.0   1_655     S
V128     V3    10.0   1_565     S
