data_wit
_audit_creation_date              2019-12-31
_audit_creation_method            'Pymatgen'
_symmetry_space_group_name_H-M    'P1'
_symmetry_Int_Tables_number       1
loop_
_symmetry_equiv_pos_as_xyz
  x,y,z
_cell_length_a                    39.7086
_cell_length_b                    39.7086
_cell_length_c                    73.0599
_cell_angle_alpha                 90.0
_cell_angle_beta                 90.0
_cell_angle_gamma                 90.0
loop_
_atom_site_label
_atom_site_type_symbol
_atom_site_fract_x
_atom_site_fract_y
_atom_site_fract_z
V1     V     0.3116   0.2348   0.4409
V2     V     0.3116   0.7348   0.4409
V3     V     0.8116   0.2348   0.4409
V4     V     0.8116   0.7348   0.4409
V5     V     0.4384   0.2348   0.5591
V6     V     0.4384   0.7348   0.5591
V7     V     0.9384   0.2348   0.5591
V8     V     0.9384   0.7348   0.5591
V9     V     0.1884   0.2652   0.5591
V10     V     0.1884   0.7652   0.5591
V11     V     0.6884   0.2652   0.5591
V12     V     0.6884   0.7652   0.5591
V13     V     0.0616   0.2652   0.4409
V14     V     0.0616   0.7652   0.4409
V15     V     0.5616   0.2652   0.4409
V16     V     0.5616   0.7652   0.4409
V17     V     0.1884   0.0152   0.4409
V18     V     0.1884   0.5152   0.4409
V19     V     0.6884   0.0152   0.4409
V20     V     0.6884   0.5152   0.4409
V21     V     0.0616   0.0152   0.5591
V22     V     0.0616   0.5152   0.5591
V23     V     0.5616   0.0152   0.5591
V24     V     0.5616   0.5152   0.5591
V25     V     0.4384   0.4848   0.4409
V26     V     0.4384   0.9848   0.4409
V27     V     0.9384   0.4848   0.4409
V28     V     0.9384   0.9848   0.4409
V29     V     0.3116   0.4848   0.5591
V30     V     0.3116   0.9848   0.5591
V31     V     0.8116   0.4848   0.5591
V32     V     0.8116   0.9848   0.5591
V33     V     0.1402   0.1866   0.8091
V34     V     0.1402   0.6866   0.8091
V35     V     0.6402   0.1866   0.8091
V36     V     0.6402   0.6866   0.8091
V37     V     0.1402   0.3134   0.6909
V38     V     0.1402   0.8134   0.6909
V39     V     0.6402   0.3134   0.6909
V40     V     0.6402   0.8134   0.6909
V41     V     0.1098   0.4366   0.8091
V42     V     0.1098   0.9366   0.8091
V43     V     0.6098   0.4366   0.8091
V44     V     0.6098   0.9366   0.8091
V45     V     0.1098   0.0634   0.6909
V46     V     0.1098   0.5634   0.6909
V47     V     0.6098   0.0634   0.6909
V48     V     0.6098   0.5634   0.6909
V49     V     0.3598   0.0634   0.8091
V50     V     0.3598   0.5634   0.8091
V51     V     0.8598   0.0634   0.8091
V52     V     0.8598   0.5634   0.8091
V53     V     0.3598   0.4366   0.6909
V54     V     0.3598   0.9366   0.6909
V55     V     0.8598   0.4366   0.6909
V56     V     0.8598   0.9366   0.6909
V57     V     0.3902   0.3134   0.8091
V58     V     0.3902   0.8134   0.8091
V59     V     0.8902   0.3134   0.8091
V60     V     0.8902   0.8134   0.8091
V61     V     0.3902   0.1866   0.6909
V62     V     0.3902   0.6866   0.6909
V63     V     0.8902   0.1866   0.6909
V64     V     0.8902   0.6866   0.6909
V65     V     0.4384   0.2652   0.9409
V66     V     0.4384   0.7652   0.9409
V67     V     0.9384   0.2652   0.9409
V68     V     0.9384   0.7652   0.9409
V69     V     0.3116   0.2652   0.0591
V70     V     0.3116   0.7652   0.0591
V71     V     0.8116   0.2652   0.0591
V72     V     0.8116   0.7652   0.0591
V73     V     0.1884   0.2348   0.9409
V74     V     0.1884   0.7348   0.9409
V75     V     0.6884   0.2348   0.9409
V76     V     0.6884   0.7348   0.9409
V77     V     0.0616   0.2348   0.0591
V78     V     0.0616   0.7348   0.0591
V79     V     0.5616   0.2348   0.0591
V80     V     0.5616   0.7348   0.0591
V81     V     0.4384   0.0152   0.0591
V82     V     0.4384   0.5152   0.0591
V83     V     0.9384   0.0152   0.0591
V84     V     0.9384   0.5152   0.0591
V85     V     0.3116   0.0152   0.9409
V86     V     0.3116   0.5152   0.9409
V87     V     0.8116   0.0152   0.9409
V88     V     0.8116   0.5152   0.9409
V89     V     0.0616   0.4848   0.9409
V90     V     0.0616   0.9848   0.9409
V91     V     0.5616   0.4848   0.9409
V92     V     0.5616   0.9848   0.9409
V93     V     0.1884   0.4848   0.0591
V94     V     0.1884   0.9848   0.0591
V95     V     0.6884   0.4848   0.0591
V96     V     0.6884   0.9848   0.0591
V97     V     0.3598   0.3134   0.1909
V98     V     0.3598   0.8134   0.1909
V99     V     0.8598   0.3134   0.1909
V100     V     0.8598   0.8134   0.1909
V101     V     0.3598   0.1866   0.3091
V102     V     0.3598   0.6866   0.3091
V103     V     0.8598   0.1866   0.3091
V104     V     0.8598   0.6866   0.3091
V105     V     0.3902   0.0634   0.1909
V106     V     0.3902   0.5634   0.1909
V107     V     0.8902   0.0634   0.1909
V108     V     0.8902   0.5634   0.1909
V109     V     0.3902   0.4366   0.3091
V110     V     0.3902   0.9366   0.3091
V111     V     0.8902   0.4366   0.3091
V112     V     0.8902   0.9366   0.3091
V113     V     0.1098   0.1866   0.1909
V114     V     0.1098   0.6866   0.1909
V115     V     0.6098   0.1866   0.1909
V116     V     0.6098   0.6866   0.1909
V117     V     0.1098   0.3134   0.3091
V118     V     0.1098   0.8134   0.3091
V119     V     0.6098   0.3134   0.3091
V120     V     0.6098   0.8134   0.3091
V121     V     0.1402   0.4366   0.1909
V122     V     0.1402   0.9366   0.1909
V123     V     0.6402   0.4366   0.1909
V124     V     0.6402   0.9366   0.1909
V125     V     0.1402   0.0634   0.3091
V126     V     0.1402   0.5634   0.3091
V127     V     0.6402   0.0634   0.3091
V128     V     0.6402   0.5634   0.3091
loop_
_geom_bond_atom_site_label_1
_geom_bond_atom_site_label_2
_geom_bond_distance
_geom_bond_site_symmetry_2
_ccdc_geom_bond_type
V1     V5    10.0   .     S
V1     V9    10.0   .     S
V1     V13    10.0   .     S
V1     V15    10.0   .     S
V1     V17    10.0   .     S
V1     V101    10.0   .     S
V2     V6    10.0   .     S
V2     V10    10.0   .     S
V2     V14    10.0   .     S
V2     V16    10.0   .     S
V2     V18    10.0   .     S
V2     V102    10.0   .     S
V3     V7    10.0   .     S
V3     V11    10.0   .     S
V3     V15    10.0   .     S
V3     V13    10.0   1_655     S
V3     V19    10.0   .     S
V3     V103    10.0   .     S
V4     V8    10.0   .     S
V4     V12    10.0   .     S
V4     V16    10.0   .     S
V4     V14    10.0   1_655     S
V4     V20    10.0   .     S
V4     V104    10.0   .     S
V5     V9    10.0   .     S
V5     V15    10.0   .     S
V5     V11    10.0   .     S
V5     V23    10.0   .     S
V5     V61    10.0   .     S
V6     V10    10.0   .     S
V6     V16    10.0   .     S
V6     V12    10.0   .     S
V6     V24    10.0   .     S
V6     V62    10.0   .     S
V7     V11    10.0   .     S
V7     V13    10.0   1_655     S
V7     V9    10.0   1_655     S
V7     V21    10.0   1_655     S
V7     V63    10.0   .     S
V8     V12    10.0   .     S
V8     V14    10.0   1_655     S
V8     V10    10.0   1_655     S
V8     V22    10.0   1_655     S
V8     V64    10.0   .     S
V9     V13    10.0   .     S
V9     V7    10.0   1_455     S
V9     V29    10.0   .     S
V9     V37    10.0   .     S
V10     V14    10.0   .     S
V10     V8    10.0   1_455     S
V10     V30    10.0   .     S
V10     V38    10.0   .     S
V11     V15    10.0   .     S
V11     V31    10.0   .     S
V11     V39    10.0   .     S
V12     V16    10.0   .     S
V12     V32    10.0   .     S
V12     V40    10.0   .     S
V13     V7    10.0   1_455     S
V13     V3    10.0   1_455     S
V13     V27    10.0   1_455     S
V13     V117    10.0   .     S
V14     V8    10.0   1_455     S
V14     V4    10.0   1_455     S
V14     V28    10.0   1_455     S
V14     V118    10.0   .     S
V15     V25    10.0   .     S
V15     V119    10.0   .     S
V16     V26    10.0   .     S
V16     V120    10.0   .     S
V17     V28    10.0   1_445     S
V17     V21    10.0   .     S
V17     V30    10.0   1_545     S
V17     V26    10.0   1_545     S
V17     V125    10.0   .     S
V18     V27    10.0   1_455     S
V18     V22    10.0   .     S
V18     V29    10.0   .     S
V18     V25    10.0   .     S
V18     V126    10.0   .     S
V19     V26    10.0   1_545     S
V19     V23    10.0   .     S
V19     V32    10.0   1_545     S
V19     V28    10.0   1_545     S
V19     V127    10.0   .     S
V20     V25    10.0   .     S
V20     V24    10.0   .     S
V20     V31    10.0   .     S
V20     V27    10.0   .     S
V20     V128    10.0   .     S
V21     V28    10.0   1_445     S
V21     V32    10.0   1_445     S
V21     V30    10.0   1_545     S
V21     V7    10.0   1_455     S
V21     V45    10.0   .     S
V22     V27    10.0   1_455     S
V22     V31    10.0   1_455     S
V22     V29    10.0   .     S
V22     V8    10.0   1_455     S
V22     V46    10.0   .     S
V23     V26    10.0   1_545     S
V23     V30    10.0   1_545     S
V23     V32    10.0   1_545     S
V23     V47    10.0   .     S
V24     V25    10.0   .     S
V24     V29    10.0   .     S
V24     V31    10.0   .     S
V24     V48    10.0   .     S
V25     V29    10.0   .     S
V25     V109    10.0   .     S
V26     V23    10.0   1_565     S
V26     V19    10.0   1_565     S
V26     V17    10.0   1_565     S
V26     V30    10.0   .     S
V26     V110    10.0   .     S
V27     V22    10.0   1_655     S
V27     V18    10.0   1_655     S
V27     V31    10.0   .     S
V27     V13    10.0   1_655     S
V27     V111    10.0   .     S
V28     V21    10.0   1_665     S
V28     V17    10.0   1_665     S
V28     V19    10.0   1_565     S
V28     V32    10.0   .     S
V28     V14    10.0   1_655     S
V28     V112    10.0   .     S
V29     V53    10.0   .     S
V30     V23    10.0   1_565     S
V30     V17    10.0   1_565     S
V30     V21    10.0   1_565     S
V30     V54    10.0   .     S
V31     V22    10.0   1_655     S
V31     V55    10.0   .     S
V32     V21    10.0   1_665     S
V32     V19    10.0   1_565     S
V32     V23    10.0   1_565     S
V32     V56    10.0   .     S
V33     V37    10.0   .     S
V33     V45    10.0   .     S
V33     V42    10.0   1_545     S
V33     V41    10.0   .     S
V33     V49    10.0   .     S
V33     V73    10.0   .     S
V34     V38    10.0   .     S
V34     V46    10.0   .     S
V34     V41    10.0   .     S
V34     V42    10.0   .     S
V34     V50    10.0   .     S
V34     V74    10.0   .     S
V35     V39    10.0   .     S
V35     V47    10.0   .     S
V35     V44    10.0   1_545     S
V35     V43    10.0   .     S
V35     V51    10.0   .     S
V35     V75    10.0   .     S
V36     V40    10.0   .     S
V36     V48    10.0   .     S
V36     V43    10.0   .     S
V36     V44    10.0   .     S
V36     V52    10.0   .     S
V36     V76    10.0   .     S
V37     V45    10.0   .     S
V37     V41    10.0   .     S
V37     V46    10.0   .     S
V37     V53    10.0   .     S
V38     V46    10.0   .     S
V38     V42    10.0   .     S
V38     V45    10.0   1_565     S
V38     V54    10.0   .     S
V39     V47    10.0   .     S
V39     V43    10.0   .     S
V39     V48    10.0   .     S
V39     V55    10.0   .     S
V40     V48    10.0   .     S
V40     V44    10.0   .     S
V40     V47    10.0   1_565     S
V40     V56    10.0   .     S
V41     V46    10.0   .     S
V41     V59    10.0   1_455     S
V41     V89    10.0   .     S
V42     V33    10.0   1_565     S
V42     V45    10.0   1_565     S
V42     V60    10.0   1_455     S
V42     V90    10.0   .     S
V43     V48    10.0   .     S
V43     V57    10.0   .     S
V43     V91    10.0   .     S
V44     V35    10.0   1_565     S
V44     V47    10.0   1_565     S
V44     V58    10.0   .     S
V44     V92    10.0   .     S
V45     V38    10.0   1_545     S
V45     V42    10.0   1_545     S
V45     V63    10.0   1_455     S
V46     V64    10.0   1_455     S
V47     V40    10.0   1_545     S
V47     V44    10.0   1_545     S
V47     V61    10.0   .     S
V48     V62    10.0   .     S
V49     V54    10.0   1_545     S
V49     V58    10.0   1_545     S
V49     V61    10.0   .     S
V49     V57    10.0   .     S
V49     V85    10.0   .     S
V50     V53    10.0   .     S
V50     V57    10.0   .     S
V50     V62    10.0   .     S
V50     V58    10.0   .     S
V50     V86    10.0   .     S
V51     V56    10.0   1_545     S
V51     V60    10.0   1_545     S
V51     V63    10.0   .     S
V51     V59    10.0   .     S
V51     V87    10.0   .     S
V52     V55    10.0   .     S
V52     V59    10.0   .     S
V52     V64    10.0   .     S
V52     V60    10.0   .     S
V52     V88    10.0   .     S
V53     V57    10.0   .     S
V53     V61    10.0   .     S
V53     V62    10.0   .     S
V54     V49    10.0   1_565     S
V54     V58    10.0   .     S
V54     V62    10.0   .     S
V54     V61    10.0   1_565     S
V55     V59    10.0   .     S
V55     V63    10.0   .     S
V55     V64    10.0   .     S
V56     V51    10.0   1_565     S
V56     V60    10.0   .     S
V56     V64    10.0   .     S
V56     V63    10.0   1_565     S
V57     V61    10.0   .     S
V57     V65    10.0   .     S
V58     V49    10.0   1_565     S
V58     V62    10.0   .     S
V58     V66    10.0   .     S
V59     V63    10.0   .     S
V59     V41    10.0   1_655     S
V59     V67    10.0   .     S
V60     V51    10.0   1_565     S
V60     V64    10.0   .     S
V60     V42    10.0   1_655     S
V60     V68    10.0   .     S
V61     V54    10.0   1_545     S
V63     V56    10.0   1_545     S
V63     V45    10.0   1_655     S
V64     V46    10.0   1_655     S
V65     V69    10.0   1_556     S
V65     V73    10.0   .     S
V65     V79    10.0   1_556     S
V65     V75    10.0   .     S
V65     V91    10.0   .     S
V66     V70    10.0   1_556     S
V66     V74    10.0   .     S
V66     V80    10.0   1_556     S
V66     V76    10.0   .     S
V66     V92    10.0   .     S
V67     V71    10.0   1_556     S
V67     V75    10.0   .     S
V67     V77    10.0   1_656     S
V67     V73    10.0   1_655     S
V67     V89    10.0   1_655     S
V68     V72    10.0   1_556     S
V68     V76    10.0   .     S
V68     V78    10.0   1_656     S
V68     V74    10.0   1_655     S
V68     V90    10.0   1_655     S
V69     V65    10.0   1_554     S
V69     V73    10.0   1_554     S
V69     V77    10.0   .     S
V69     V79    10.0   .     S
V69     V93    10.0   .     S
V69     V97    10.0   .     S
V70     V66    10.0   1_554     S
V70     V74    10.0   1_554     S
V70     V78    10.0   .     S
V70     V80    10.0   .     S
V70     V94    10.0   .     S
V70     V98    10.0   .     S
V71     V67    10.0   1_554     S
V71     V75    10.0   1_554     S
V71     V79    10.0   .     S
V71     V77    10.0   1_655     S
V71     V95    10.0   .     S
V71     V99    10.0   .     S
V72     V68    10.0   1_554     S
V72     V76    10.0   1_554     S
V72     V80    10.0   .     S
V72     V78    10.0   1_655     S
V72     V96    10.0   .     S
V72     V100    10.0   .     S
V73     V69    10.0   1_556     S
V73     V77    10.0   1_556     S
V73     V67    10.0   1_455     S
V73     V85    10.0   .     S
V74     V70    10.0   1_556     S
V74     V78    10.0   1_556     S
V74     V68    10.0   1_455     S
V74     V86    10.0   .     S
V75     V71    10.0   1_556     S
V75     V79    10.0   1_556     S
V75     V87    10.0   .     S
V76     V72    10.0   1_556     S
V76     V80    10.0   1_556     S
V76     V88    10.0   .     S
V77     V73    10.0   1_554     S
V77     V67    10.0   1_454     S
V77     V71    10.0   1_455     S
V77     V83    10.0   1_455     S
V77     V113    10.0   .     S
V78     V74    10.0   1_554     S
V78     V68    10.0   1_454     S
V78     V72    10.0   1_455     S
V78     V84    10.0   1_455     S
V78     V114    10.0   .     S
V79     V75    10.0   1_554     S
V79     V65    10.0   1_554     S
V79     V81    10.0   .     S
V79     V115    10.0   .     S
V80     V76    10.0   1_554     S
V80     V66    10.0   1_554     S
V80     V82    10.0   .     S
V80     V116    10.0   .     S
V81     V85    10.0   1_554     S
V81     V92    10.0   1_544     S
V81     V96    10.0   1_545     S
V81     V94    10.0   1_545     S
V81     V105    10.0   .     S
V82     V86    10.0   1_554     S
V82     V91    10.0   1_554     S
V82     V95    10.0   .     S
V82     V93    10.0   .     S
V82     V106    10.0   .     S
V83     V87    10.0   1_554     S
V83     V90    10.0   1_644     S
V83     V94    10.0   1_645     S
V83     V96    10.0   1_545     S
V83     V77    10.0   1_655     S
V83     V107    10.0   .     S
V84     V88    10.0   1_554     S
V84     V89    10.0   1_654     S
V84     V93    10.0   1_655     S
V84     V95    10.0   .     S
V84     V78    10.0   1_655     S
V84     V108    10.0   .     S
V85     V81    10.0   1_556     S
V85     V92    10.0   1_545     S
V85     V94    10.0   1_546     S
V85     V90    10.0   1_545     S
V86     V82    10.0   1_556     S
V86     V91    10.0   .     S
V86     V93    10.0   1_556     S
V86     V89    10.0   .     S
V87     V83    10.0   1_556     S
V87     V90    10.0   1_645     S
V87     V96    10.0   1_546     S
V87     V92    10.0   1_545     S
V88     V84    10.0   1_556     S
V88     V89    10.0   1_655     S
V88     V95    10.0   1_556     S
V88     V91    10.0   .     S
V89     V84    10.0   1_456     S
V89     V88    10.0   1_455     S
V89     V93    10.0   1_556     S
V89     V67    10.0   1_455     S
V90     V83    10.0   1_466     S
V90     V87    10.0   1_465     S
V90     V85    10.0   1_565     S
V90     V94    10.0   1_556     S
V90     V68    10.0   1_455     S
V91     V82    10.0   1_556     S
V91     V95    10.0   1_556     S
V92     V81    10.0   1_566     S
V92     V85    10.0   1_565     S
V92     V87    10.0   1_565     S
V92     V96    10.0   1_556     S
V93     V84    10.0   1_455     S
V93     V86    10.0   1_554     S
V93     V89    10.0   1_554     S
V93     V121    10.0   .     S
V94     V83    10.0   1_465     S
V94     V85    10.0   1_564     S
V94     V81    10.0   1_565     S
V94     V90    10.0   1_554     S
V94     V122    10.0   .     S
V95     V88    10.0   1_554     S
V95     V91    10.0   1_554     S
V95     V123    10.0   .     S
V96     V81    10.0   1_565     S
V96     V87    10.0   1_564     S
V96     V83    10.0   1_565     S
V96     V92    10.0   1_554     S
V96     V124    10.0   .     S
V97     V101    10.0   .     S
V97     V109    10.0   .     S
V97     V106    10.0   .     S
V97     V105    10.0   .     S
V97     V121    10.0   .     S
V98     V102    10.0   .     S
V98     V110    10.0   .     S
V98     V105    10.0   1_565     S
V98     V106    10.0   .     S
V98     V122    10.0   .     S
V99     V103    10.0   .     S
V99     V111    10.0   .     S
V99     V108    10.0   .     S
V99     V107    10.0   .     S
V99     V123    10.0   .     S
V100     V104    10.0   .     S
V100     V112    10.0   .     S
V100     V107    10.0   1_565     S
V100     V108    10.0   .     S
V100     V124    10.0   .     S
V101     V109    10.0   .     S
V101     V105    10.0   .     S
V101     V110    10.0   1_545     S
V101     V125    10.0   .     S
V102     V110    10.0   .     S
V102     V106    10.0   .     S
V102     V109    10.0   .     S
V102     V126    10.0   .     S
V103     V111    10.0   .     S
V103     V107    10.0   .     S
V103     V112    10.0   1_545     S
V103     V127    10.0   .     S
V104     V112    10.0   .     S
V104     V108    10.0   .     S
V104     V111    10.0   .     S
V104     V128    10.0   .     S
V105     V98    10.0   1_545     S
V105     V110    10.0   1_545     S
V105     V115    10.0   .     S
V106     V109    10.0   .     S
V106     V116    10.0   .     S
V107     V100    10.0   1_545     S
V107     V112    10.0   1_545     S
V107     V113    10.0   1_655     S
V108     V111    10.0   .     S
V108     V114    10.0   1_655     S
V109     V119    10.0   .     S
V110     V101    10.0   1_565     S
V110     V105    10.0   1_565     S
V110     V120    10.0   .     S
V111     V117    10.0   1_655     S
V112     V103    10.0   1_565     S
V112     V107    10.0   1_565     S
V112     V118    10.0   1_655     S
V113     V117    10.0   .     S
V113     V125    10.0   .     S
V113     V122    10.0   1_545     S
V113     V121    10.0   .     S
V113     V107    10.0   1_455     S
V114     V118    10.0   .     S
V114     V126    10.0   .     S
V114     V121    10.0   .     S
V114     V122    10.0   .     S
V114     V108    10.0   1_455     S
V115     V119    10.0   .     S
V115     V127    10.0   .     S
V115     V124    10.0   1_545     S
V115     V123    10.0   .     S
V116     V120    10.0   .     S
V116     V128    10.0   .     S
V116     V123    10.0   .     S
V116     V124    10.0   .     S
V117     V125    10.0   .     S
V117     V121    10.0   .     S
V117     V126    10.0   .     S
V117     V111    10.0   1_455     S
V118     V126    10.0   .     S
V118     V122    10.0   .     S
V118     V125    10.0   1_565     S
V118     V112    10.0   1_455     S
V119     V127    10.0   .     S
V119     V123    10.0   .     S
V119     V128    10.0   .     S
V120     V128    10.0   .     S
V120     V124    10.0   .     S
V120     V127    10.0   1_565     S
V121     V126    10.0   .     S
V122     V113    10.0   1_565     S
V122     V125    10.0   1_565     S
V123     V128    10.0   .     S
V124     V115    10.0   1_565     S
V124     V127    10.0   1_565     S
V125     V118    10.0   1_545     S
V125     V122    10.0   1_545     S
V127     V120    10.0   1_545     S
V127     V124    10.0   1_545     S
