data_wiu
_audit_creation_date              2019-12-31
_audit_creation_method            'Pymatgen'
_symmetry_space_group_name_H-M    'P1'
_symmetry_Int_Tables_number       1
loop_
_symmetry_equiv_pos_as_xyz
  x,y,z
_cell_length_a                    37.8554
_cell_length_b                    37.8554
_cell_length_c                    38.6932
_cell_angle_alpha                 90.0
_cell_angle_beta                 90.0
_cell_angle_gamma                 90.0
loop_
_atom_site_label
_atom_site_type_symbol
_atom_site_fract_x
_atom_site_fract_y
_atom_site_fract_z
V1     V     0.1025   0.4584   0.5706
V2     V     0.1025   0.9584   0.5706
V3     V     0.6025   0.4584   0.5706
V4     V     0.6025   0.9584   0.5706
V5     V     0.3975   0.2916   0.5706
V6     V     0.3975   0.7917   0.5706
V7     V     0.8975   0.2916   0.5706
V8     V     0.8975   0.7917   0.5706
V9     V     0.1667   0.2275   0.6794
V10     V     0.1667   0.7275   0.6794
V11     V     0.6667   0.2275   0.6794
V12     V     0.6667   0.7275   0.6794
V13     V     0.3334   0.0225   0.6794
V14     V     0.3334   0.5225   0.6794
V15     V     0.8334   0.0225   0.6794
V16     V     0.8334   0.5225   0.6794
V17     V     0.3525   0.4584   0.9294
V18     V     0.3525   0.9584   0.9294
V19     V     0.8525   0.4584   0.9294
V20     V     0.8525   0.9584   0.9294
V21     V     0.1475   0.2916   0.9294
V22     V     0.1475   0.7917   0.9294
V23     V     0.6475   0.2916   0.9294
V24     V     0.6475   0.7917   0.9294
V25     V     0.0834   0.0225   0.8206
V26     V     0.0834   0.5225   0.8206
V27     V     0.5834   0.0225   0.8206
V28     V     0.5834   0.5225   0.8206
V29     V     0.4166   0.2275   0.8206
V30     V     0.4166   0.7275   0.8206
V31     V     0.9166   0.2275   0.8206
V32     V     0.9166   0.7275   0.8206
V33     V     0.3525   0.2084   0.0706
V34     V     0.3525   0.7084   0.0706
V35     V     0.8525   0.2084   0.0706
V36     V     0.8525   0.7084   0.0706
V37     V     0.0833   0.2725   0.1794
V38     V     0.0833   0.7725   0.1794
V39     V     0.5834   0.2725   0.1794
V40     V     0.5834   0.7725   0.1794
V41     V     0.1475   0.0416   0.0706
V42     V     0.1475   0.5416   0.0706
V43     V     0.6475   0.0416   0.0706
V44     V     0.6475   0.5416   0.0706
V45     V     0.4166   0.4775   0.1794
V46     V     0.4166   0.9775   0.1794
V47     V     0.9166   0.4775   0.1794
V48     V     0.9166   0.9775   0.1794
V49     V     0.3975   0.0416   0.4294
V50     V     0.3975   0.5416   0.4294
V51     V     0.8975   0.0416   0.4294
V52     V     0.8975   0.5416   0.4294
V53     V     0.1025   0.2084   0.4294
V54     V     0.1025   0.7084   0.4294
V55     V     0.6025   0.2084   0.4294
V56     V     0.6025   0.7084   0.4294
V57     V     0.3334   0.2725   0.3206
V58     V     0.3334   0.7725   0.3206
V59     V     0.8334   0.2725   0.3206
V60     V     0.8334   0.7725   0.3206
V61     V     0.1666   0.4775   0.3206
V62     V     0.1666   0.9775   0.3206
V63     V     0.6666   0.4775   0.3206
V64     V     0.6666   0.9775   0.3206
loop_
_geom_bond_atom_site_label_1
_geom_bond_atom_site_label_2
_geom_bond_distance
_geom_bond_site_symmetry_2
_ccdc_geom_bond_type
V1     V9    10.0   .     S
V1     V14    10.0   .     S
V1     V7    10.0   1_455     S
V1     V61    10.0   .     S
V1     V26    10.0   .     S
V1     V52    10.0   1_455     S
V2     V10    10.0   .     S
V2     V13    10.0   1_565     S
V2     V8    10.0   1_455     S
V2     V62    10.0   .     S
V2     V25    10.0   1_565     S
V2     V51    10.0   1_465     S
V3     V11    10.0   .     S
V3     V16    10.0   .     S
V3     V5    10.0   .     S
V3     V63    10.0   .     S
V3     V28    10.0   .     S
V3     V50    10.0   .     S
V4     V12    10.0   .     S
V4     V15    10.0   1_565     S
V4     V6    10.0   .     S
V4     V64    10.0   .     S
V4     V27    10.0   1_565     S
V4     V49    10.0   1_565     S
V5     V14    10.0   .     S
V5     V9    10.0   .     S
V5     V29    10.0   .     S
V5     V57    10.0   .     S
V5     V55    10.0   .     S
V6     V13    10.0   1_565     S
V6     V10    10.0   .     S
V6     V30    10.0   .     S
V6     V58    10.0   .     S
V6     V56    10.0   .     S
V7     V16    10.0   .     S
V7     V11    10.0   .     S
V7     V1    10.0   1_655     S
V7     V31    10.0   .     S
V7     V59    10.0   .     S
V7     V53    10.0   1_655     S
V8     V15    10.0   1_565     S
V8     V12    10.0   .     S
V8     V2    10.0   1_655     S
V8     V32    10.0   .     S
V8     V60    10.0   .     S
V8     V54    10.0   1_655     S
V9     V13    10.0   .     S
V9     V21    10.0   .     S
V9     V53    10.0   .     S
V9     V25    10.0   .     S
V10     V14    10.0   .     S
V10     V22    10.0   .     S
V10     V54    10.0   .     S
V10     V26    10.0   .     S
V11     V15    10.0   .     S
V11     V23    10.0   .     S
V11     V55    10.0   .     S
V11     V27    10.0   .     S
V12     V16    10.0   .     S
V12     V24    10.0   .     S
V12     V56    10.0   .     S
V12     V28    10.0   .     S
V13     V6    10.0   1_545     S
V13     V2    10.0   1_545     S
V13     V18    10.0   1_545     S
V13     V49    10.0   .     S
V13     V29    10.0   .     S
V14     V17    10.0   .     S
V14     V50    10.0   .     S
V14     V30    10.0   .     S
V15     V8    10.0   1_545     S
V15     V4    10.0   1_545     S
V15     V20    10.0   1_545     S
V15     V51    10.0   .     S
V15     V31    10.0   .     S
V16     V19    10.0   .     S
V16     V52    10.0   .     S
V16     V32    10.0   .     S
V17     V29    10.0   .     S
V17     V28    10.0   .     S
V17     V21    10.0   .     S
V17     V45    10.0   1_556     S
V17     V42    10.0   1_556     S
V18     V13    10.0   1_565     S
V18     V30    10.0   .     S
V18     V27    10.0   1_565     S
V18     V22    10.0   .     S
V18     V46    10.0   1_556     S
V18     V41    10.0   1_566     S
V19     V31    10.0   .     S
V19     V26    10.0   1_655     S
V19     V23    10.0   .     S
V19     V47    10.0   1_556     S
V19     V44    10.0   1_556     S
V20     V15    10.0   1_565     S
V20     V32    10.0   .     S
V20     V25    10.0   1_665     S
V20     V24    10.0   .     S
V20     V48    10.0   1_556     S
V20     V43    10.0   1_566     S
V21     V26    10.0   .     S
V21     V31    10.0   1_455     S
V21     V37    10.0   1_556     S
V21     V33    10.0   1_556     S
V22     V25    10.0   1_565     S
V22     V32    10.0   1_455     S
V22     V38    10.0   1_556     S
V22     V34    10.0   1_556     S
V23     V28    10.0   .     S
V23     V29    10.0   .     S
V23     V39    10.0   1_556     S
V23     V35    10.0   1_556     S
V24     V27    10.0   1_565     S
V24     V30    10.0   .     S
V24     V40    10.0   1_556     S
V24     V36    10.0   1_556     S
V25     V22    10.0   1_545     S
V25     V20    10.0   1_445     S
V25     V31    10.0   1_455     S
V25     V41    10.0   1_556     S
V25     V2    10.0   1_545     S
V26     V19    10.0   1_455     S
V26     V32    10.0   1_455     S
V26     V42    10.0   1_556     S
V27     V24    10.0   1_545     S
V27     V18    10.0   1_545     S
V27     V29    10.0   .     S
V27     V43    10.0   1_556     S
V27     V4    10.0   1_545     S
V28     V30    10.0   .     S
V28     V44    10.0   1_556     S
V29     V33    10.0   1_556     S
V30     V34    10.0   1_556     S
V31     V21    10.0   1_655     S
V31     V25    10.0   1_655     S
V31     V35    10.0   1_556     S
V32     V22    10.0   1_655     S
V32     V26    10.0   1_655     S
V32     V36    10.0   1_556     S
V33     V46    10.0   1_545     S
V33     V39    10.0   .     S
V33     V41    10.0   .     S
V33     V29    10.0   1_554     S
V33     V57    10.0   .     S
V33     V21    10.0   1_554     S
V34     V45    10.0   .     S
V34     V40    10.0   .     S
V34     V42    10.0   .     S
V34     V30    10.0   1_554     S
V34     V58    10.0   .     S
V34     V22    10.0   1_554     S
V35     V48    10.0   1_545     S
V35     V37    10.0   1_655     S
V35     V43    10.0   .     S
V35     V31    10.0   1_554     S
V35     V59    10.0   .     S
V35     V23    10.0   1_554     S
V36     V47    10.0   .     S
V36     V38    10.0   1_655     S
V36     V44    10.0   .     S
V36     V32    10.0   1_554     S
V36     V60    10.0   .     S
V36     V24    10.0   1_554     S
V37     V21    10.0   1_554     S
V37     V35    10.0   1_455     S
V37     V41    10.0   .     S
V37     V47    10.0   1_455     S
V37     V53    10.0   .     S
V37     V61    10.0   .     S
V38     V22    10.0   1_554     S
V38     V36    10.0   1_455     S
V38     V42    10.0   .     S
V38     V48    10.0   1_455     S
V38     V54    10.0   .     S
V38     V62    10.0   .     S
V39     V23    10.0   1_554     S
V39     V43    10.0   .     S
V39     V45    10.0   .     S
V39     V55    10.0   .     S
V39     V63    10.0   .     S
V40     V24    10.0   1_554     S
V40     V44    10.0   .     S
V40     V46    10.0   .     S
V40     V56    10.0   .     S
V40     V64    10.0   .     S
V41     V48    10.0   1_445     S
V41     V25    10.0   1_554     S
V41     V62    10.0   1_545     S
V41     V18    10.0   1_544     S
V42     V47    10.0   1_455     S
V42     V26    10.0   1_554     S
V42     V61    10.0   .     S
V42     V17    10.0   1_554     S
V43     V46    10.0   1_545     S
V43     V27    10.0   1_554     S
V43     V64    10.0   1_545     S
V43     V20    10.0   1_544     S
V44     V45    10.0   .     S
V44     V28    10.0   1_554     S
V44     V63    10.0   .     S
V44     V19    10.0   1_554     S
V45     V17    10.0   1_554     S
V45     V50    10.0   .     S
V45     V57    10.0   .     S
V46     V18    10.0   1_554     S
V46     V33    10.0   1_565     S
V46     V43    10.0   1_565     S
V46     V49    10.0   1_565     S
V46     V58    10.0   .     S
V47     V19    10.0   1_554     S
V47     V42    10.0   1_655     S
V47     V37    10.0   1_655     S
V47     V52    10.0   .     S
V47     V59    10.0   .     S
V48     V20    10.0   1_554     S
V48     V35    10.0   1_565     S
V48     V41    10.0   1_665     S
V48     V38    10.0   1_655     S
V48     V51    10.0   1_565     S
V48     V60    10.0   .     S
V49     V62    10.0   1_545     S
V49     V57    10.0   .     S
V49     V55    10.0   .     S
V49     V46    10.0   1_545     S
V49     V4    10.0   1_545     S
V50     V61    10.0   .     S
V50     V58    10.0   .     S
V50     V56    10.0   .     S
V51     V64    10.0   1_545     S
V51     V59    10.0   .     S
V51     V53    10.0   1_655     S
V51     V48    10.0   1_545     S
V51     V2    10.0   1_645     S
V52     V63    10.0   .     S
V52     V60    10.0   .     S
V52     V54    10.0   1_655     S
V52     V1    10.0   1_655     S
V53     V62    10.0   1_545     S
V53     V57    10.0   .     S
V53     V51    10.0   1_455     S
V53     V7    10.0   1_455     S
V54     V61    10.0   .     S
V54     V58    10.0   .     S
V54     V52    10.0   1_455     S
V54     V8    10.0   1_455     S
V55     V64    10.0   1_545     S
V55     V59    10.0   .     S
V56     V63    10.0   .     S
V56     V60    10.0   .     S
V57     V61    10.0   .     S
V58     V62    10.0   .     S
V59     V63    10.0   .     S
V60     V64    10.0   .     S
V62     V49    10.0   1_565     S
V62     V53    10.0   1_565     S
V62     V41    10.0   1_565     S
V64     V51    10.0   1_565     S
V64     V55    10.0   1_565     S
V64     V43    10.0   1_565     S
