data_wiv
_audit_creation_date              2019-12-31
_audit_creation_method            'Pymatgen'
_symmetry_space_group_name_H-M    'P1'
_symmetry_Int_Tables_number       1
loop_
_symmetry_equiv_pos_as_xyz
  x,y,z
_cell_length_a                    37.9889
_cell_length_b                    37.9889
_cell_length_c                    30.0
_cell_angle_alpha                 90.0
_cell_angle_beta                 90.0
_cell_angle_gamma                 90.0
loop_
_atom_site_label
_atom_site_type_symbol
_atom_site_fract_x
_atom_site_fract_y
_atom_site_fract_z
V1     V     0.8816   0.3653   0.2947
V2     V     0.8816   0.3653   0.6281
V3     V     0.8816   0.3653   0.9614
V4     V     0.8816   0.1347   0.1219
V5     V     0.8816   0.1347   0.4553
V6     V     0.8816   0.1347   0.7886
V7     V     0.3653   0.3816   0.0447
V8     V     0.3653   0.3816   0.3781
V9     V     0.3653   0.3816   0.7114
V10     V     0.1347   0.3816   0.2053
V11     V     0.1347   0.3816   0.5386
V12     V     0.1347   0.3816   0.8719
V13     V     0.1184   0.6347   0.2947
V14     V     0.1184   0.6347   0.6281
V15     V     0.1184   0.6347   0.9614
V16     V     0.1184   0.8653   0.1219
V17     V     0.1184   0.8653   0.4553
V18     V     0.1184   0.8653   0.7886
V19     V     0.6347   0.6184   0.0447
V20     V     0.6347   0.6184   0.3781
V21     V     0.6347   0.6184   0.7114
V22     V     0.8653   0.6184   0.2053
V23     V     0.8653   0.6184   0.5386
V24     V     0.8653   0.6184   0.8719
V25     V     0.6347   0.8816   0.0386
V26     V     0.6347   0.8816   0.3719
V27     V     0.6347   0.8816   0.7053
V28     V     0.8653   0.8816   0.2114
V29     V     0.8653   0.8816   0.5447
V30     V     0.8653   0.8816   0.8781
V31     V     0.6184   0.1347   0.1281
V32     V     0.6184   0.1347   0.4614
V33     V     0.6184   0.1347   0.7947
V34     V     0.6184   0.3653   0.2886
V35     V     0.6184   0.3653   0.6219
V36     V     0.6184   0.3653   0.9553
V37     V     0.3816   0.6347   0.2886
V38     V     0.3816   0.6347   0.6219
V39     V     0.3816   0.6347   0.9553
V40     V     0.3816   0.8653   0.1281
V41     V     0.3816   0.8653   0.4614
V42     V     0.3816   0.8653   0.7947
V43     V     0.3653   0.1184   0.0386
V44     V     0.3653   0.1184   0.3719
V45     V     0.3653   0.1184   0.7053
V46     V     0.1347   0.1184   0.2114
V47     V     0.1347   0.1184   0.5447
V48     V     0.1347   0.1184   0.8781
loop_
_geom_bond_atom_site_label_1
_geom_bond_atom_site_label_2
_geom_bond_distance
_geom_bond_site_symmetry_2
_ccdc_geom_bond_type
V1     V5    10.0   .     S
V1     V3    10.0   1_554     S
V1     V2    10.0   .     S
V1     V10    10.0   1_655     S
V1     V22    10.0   .     S
V1     V34    10.0   .     S
V2     V6    10.0   .     S
V2     V3    10.0   .     S
V2     V11    10.0   1_655     S
V2     V23    10.0   .     S
V2     V35    10.0   .     S
V3     V4    10.0   1_556     S
V3     V1    10.0   1_556     S
V3     V12    10.0   1_655     S
V3     V24    10.0   .     S
V3     V36    10.0   .     S
V4     V3    10.0   1_554     S
V4     V5    10.0   .     S
V4     V6    10.0   1_554     S
V4     V46    10.0   1_655     S
V4     V28    10.0   1_545     S
V4     V31    10.0   .     S
V5     V6    10.0   .     S
V5     V47    10.0   1_655     S
V5     V29    10.0   1_545     S
V5     V32    10.0   .     S
V6     V4    10.0   1_556     S
V6     V48    10.0   1_655     S
V6     V30    10.0   1_545     S
V6     V33    10.0   .     S
V7     V10    10.0   .     S
V7     V8    10.0   .     S
V7     V9    10.0   1_554     S
V7     V39    10.0   1_554     S
V7     V36    10.0   1_554     S
V7     V43    10.0   .     S
V8     V11    10.0   .     S
V8     V9    10.0   .     S
V8     V37    10.0   .     S
V8     V34    10.0   .     S
V8     V44    10.0   .     S
V9     V12    10.0   .     S
V9     V7    10.0   1_556     S
V9     V38    10.0   .     S
V9     V35    10.0   .     S
V9     V45    10.0   .     S
V10     V12    10.0   1_554     S
V10     V11    10.0   .     S
V10     V13    10.0   .     S
V10     V1    10.0   1_455     S
V10     V46    10.0   .     S
V11     V12    10.0   .     S
V11     V14    10.0   .     S
V11     V2    10.0   1_455     S
V11     V47    10.0   .     S
V12     V10    10.0   1_556     S
V12     V15    10.0   .     S
V12     V3    10.0   1_455     S
V12     V48    10.0   .     S
V13     V17    10.0   .     S
V13     V15    10.0   1_554     S
V13     V14    10.0   .     S
V13     V22    10.0   1_455     S
V13     V37    10.0   .     S
V14     V18    10.0   .     S
V14     V15    10.0   .     S
V14     V23    10.0   1_455     S
V14     V38    10.0   .     S
V15     V16    10.0   1_556     S
V15     V13    10.0   1_556     S
V15     V24    10.0   1_455     S
V15     V39    10.0   .     S
V16     V15    10.0   1_554     S
V16     V17    10.0   .     S
V16     V18    10.0   1_554     S
V16     V46    10.0   1_565     S
V16     V28    10.0   1_455     S
V16     V40    10.0   .     S
V17     V18    10.0   .     S
V17     V47    10.0   1_565     S
V17     V29    10.0   1_455     S
V17     V41    10.0   .     S
V18     V16    10.0   1_556     S
V18     V48    10.0   1_565     S
V18     V30    10.0   1_455     S
V18     V42    10.0   .     S
V19     V22    10.0   .     S
V19     V20    10.0   .     S
V19     V21    10.0   1_554     S
V19     V39    10.0   1_554     S
V19     V36    10.0   1_554     S
V19     V25    10.0   .     S
V20     V23    10.0   .     S
V20     V21    10.0   .     S
V20     V37    10.0   .     S
V20     V34    10.0   .     S
V20     V26    10.0   .     S
V21     V24    10.0   .     S
V21     V19    10.0   1_556     S
V21     V38    10.0   .     S
V21     V35    10.0   .     S
V21     V27    10.0   .     S
V22     V24    10.0   1_554     S
V22     V23    10.0   .     S
V22     V13    10.0   1_655     S
V22     V28    10.0   .     S
V23     V24    10.0   .     S
V23     V14    10.0   1_655     S
V23     V29    10.0   .     S
V24     V22    10.0   1_556     S
V24     V15    10.0   1_655     S
V24     V30    10.0   .     S
V25     V30    10.0   1_554     S
V25     V26    10.0   .     S
V25     V27    10.0   1_554     S
V25     V40    10.0   .     S
V25     V31    10.0   1_565     S
V26     V28    10.0   .     S
V26     V27    10.0   .     S
V26     V41    10.0   .     S
V26     V32    10.0   1_565     S
V27     V29    10.0   .     S
V27     V25    10.0   1_556     S
V27     V42    10.0   .     S
V27     V33    10.0   1_565     S
V28     V30    10.0   1_554     S
V28     V29    10.0   .     S
V28     V4    10.0   1_565     S
V28     V16    10.0   1_655     S
V29     V30    10.0   .     S
V29     V5    10.0   1_565     S
V29     V17    10.0   1_655     S
V30     V25    10.0   1_556     S
V30     V28    10.0   1_556     S
V30     V6    10.0   1_565     S
V30     V18    10.0   1_655     S
V31     V34    10.0   .     S
V31     V32    10.0   .     S
V31     V33    10.0   1_554     S
V31     V43    10.0   .     S
V31     V25    10.0   1_545     S
V32     V35    10.0   .     S
V32     V33    10.0   .     S
V32     V44    10.0   .     S
V32     V26    10.0   1_545     S
V33     V36    10.0   .     S
V33     V31    10.0   1_556     S
V33     V45    10.0   .     S
V33     V27    10.0   1_545     S
V34     V36    10.0   1_554     S
V34     V35    10.0   .     S
V35     V36    10.0   .     S
V36     V34    10.0   1_556     S
V36     V19    10.0   1_556     S
V36     V7    10.0   1_556     S
V37     V40    10.0   .     S
V37     V39    10.0   1_554     S
V37     V38    10.0   .     S
V38     V41    10.0   .     S
V38     V39    10.0   .     S
V39     V7    10.0   1_556     S
V39     V42    10.0   .     S
V39     V37    10.0   1_556     S
V39     V19    10.0   1_556     S
V40     V41    10.0   .     S
V40     V42    10.0   1_554     S
V40     V43    10.0   1_565     S
V41     V42    10.0   .     S
V41     V44    10.0   1_565     S
V42     V40    10.0   1_556     S
V42     V45    10.0   1_565     S
V43     V48    10.0   1_554     S
V43     V44    10.0   .     S
V43     V45    10.0   1_554     S
V43     V40    10.0   1_545     S
V44     V46    10.0   .     S
V44     V45    10.0   .     S
V44     V41    10.0   1_545     S
V45     V47    10.0   .     S
V45     V43    10.0   1_556     S
V45     V42    10.0   1_545     S
V46     V4    10.0   1_455     S
V46     V48    10.0   1_554     S
V46     V47    10.0   .     S
V46     V16    10.0   1_545     S
V47     V5    10.0   1_455     S
V47     V48    10.0   .     S
V47     V17    10.0   1_545     S
V48     V6    10.0   1_455     S
V48     V43    10.0   1_556     S
V48     V46    10.0   1_556     S
V48     V18    10.0   1_545     S
