data_wix
_audit_creation_date              2019-12-31
_audit_creation_method            'Pymatgen'
_symmetry_space_group_name_H-M    'P1'
_symmetry_Int_Tables_number       1
loop_
_symmetry_equiv_pos_as_xyz
  x,y,z
_cell_length_a                    39.6381
_cell_length_b                    39.6381
_cell_length_c                    40.611
_cell_angle_alpha                 90.0
_cell_angle_beta                 90.0
_cell_angle_gamma                 120.0
loop_
_atom_site_label
_atom_site_type_symbol
_atom_site_fract_x
_atom_site_fract_y
_atom_site_fract_z
V1     V     0.8566   0.497   0.4384
V2     V     0.8566   0.497   0.9384
V3     V     0.6404   0.497   0.3116
V4     V     0.6404   0.497   0.8116
V5     V     0.503   0.1434   0.4783
V6     V     0.503   0.1434   0.9783
V7     V     0.503   0.3596   0.1051
V8     V     0.503   0.3596   0.6051
V9     V     0.6404   0.1434   0.2717
V10     V     0.6404   0.1434   0.7717
V11     V     0.8566   0.3596   0.1449
V12     V     0.8566   0.3596   0.6449
V13     V     0.497   0.6404   0.3551
V14     V     0.497   0.6404   0.8551
V15     V     0.3596   0.503   0.0616
V16     V     0.3596   0.503   0.5616
V17     V     0.1434   0.503   0.1884
V18     V     0.1434   0.503   0.6884
V19     V     0.497   0.8566   0.2283
V20     V     0.497   0.8566   0.7283
V21     V     0.1434   0.6404   0.3949
V22     V     0.1434   0.6404   0.8949
V23     V     0.3596   0.8566   0.0217
V24     V     0.3596   0.8566   0.5217
loop_
_geom_bond_atom_site_label_1
_geom_bond_atom_site_label_2
_geom_bond_distance
_geom_bond_site_symmetry_2
_ccdc_geom_bond_type
V1     V3    10.0   .     S
V1     V12    10.0   .     S
V1     V21    10.0   1_655     S
V2     V4    10.0   .     S
V2     V11    10.0   1_556     S
V2     V22    10.0   1_655     S
V3     V7    10.0   .     S
V3     V13    10.0   .     S
V4     V8    10.0   .     S
V4     V14    10.0   .     S
V5     V8    10.0   .     S
V5     V9    10.0   .     S
V5     V24    10.0   1_545     S
V6     V7    10.0   1_556     S
V6     V10    10.0   .     S
V6     V23    10.0   1_546     S
V7     V6    10.0   1_554     S
V7     V15    10.0   .     S
V8     V16    10.0   .     S
V9     V11    10.0   .     S
V9     V19    10.0   1_545     S
V10     V12    10.0   .     S
V10     V20    10.0   1_545     S
V11     V2    10.0   1_554     S
V11     V17    10.0   1_655     S
V12     V18    10.0   1_655     S
V13     V19    10.0   .     S
V13     V16    10.0   .     S
V14     V20    10.0   .     S
V14     V15    10.0   1_556     S
V15     V17    10.0   .     S
V15     V14    10.0   1_554     S
V16     V18    10.0   .     S
V17     V21    10.0   .     S
V17     V11    10.0   1_455     S
V18     V22    10.0   .     S
V18     V12    10.0   1_455     S
V19     V23    10.0   .     S
V19     V9    10.0   1_565     S
V20     V24    10.0   .     S
V20     V10    10.0   1_565     S
V21     V1    10.0   1_455     S
V21     V24    10.0   .     S
V22     V2    10.0   1_455     S
V22     V23    10.0   1_556     S
V23     V6    10.0   1_564     S
V23     V22    10.0   1_554     S
V24     V5    10.0   1_565     S
