data_wiy
_audit_creation_date              2019-12-31
_audit_creation_method            'Pymatgen'
_symmetry_space_group_name_H-M    'P1'
_symmetry_Int_Tables_number       1
loop_
_symmetry_equiv_pos_as_xyz
  x,y,z
_cell_length_a                    38.8404
_cell_length_b                    38.8404
_cell_length_c                    30.4412
_cell_angle_alpha                 90.0
_cell_angle_beta                 90.0
_cell_angle_gamma                 120.0
loop_
_atom_site_label
_atom_site_type_symbol
_atom_site_fract_x
_atom_site_fract_y
_atom_site_fract_z
V1     V     0.4271   0.3166   0.4432
V2     V     0.4271   0.3166   0.9432
V3     V     0.4271   0.1105   0.1401
V4     V     0.4271   0.1105   0.6401
V5     V     0.6834   0.1105   0.1099
V6     V     0.6834   0.1105   0.6099
V7     V     0.8895   0.3166   0.3068
V8     V     0.8895   0.3166   0.8068
V9     V     0.6834   0.5729   0.4735
V10     V     0.6834   0.5729   0.9735
V11     V     0.8895   0.5729   0.2765
V12     V     0.8895   0.5729   0.7765
V13     V     0.1105   0.6834   0.0568
V14     V     0.1105   0.6834   0.5568
V15     V     0.3166   0.8895   0.3599
V16     V     0.3166   0.8895   0.8599
V17     V     0.5729   0.6834   0.1932
V18     V     0.5729   0.6834   0.6932
V19     V     0.5729   0.8895   0.3901
V20     V     0.5729   0.8895   0.8901
V21     V     0.3166   0.4271   0.2235
V22     V     0.3166   0.4271   0.7235
V23     V     0.1105   0.4271   0.0265
V24     V     0.1105   0.4271   0.5265
loop_
_geom_bond_atom_site_label_1
_geom_bond_atom_site_label_2
_geom_bond_distance
_geom_bond_site_symmetry_2
_ccdc_geom_bond_type
V1     V4    10.0   .     S
V1     V9    10.0   .     S
V1     V21    10.0   .     S
V2     V3    10.0   1_556     S
V2     V10    10.0   .     S
V2     V22    10.0   .     S
V3     V5    10.0   .     S
V3     V2    10.0   1_554     S
V3     V15    10.0   1_545     S
V4     V6    10.0   .     S
V4     V16    10.0   1_545     S
V5     V7    10.0   .     S
V5     V20    10.0   1_544     S
V6     V8    10.0   .     S
V6     V19    10.0   1_545     S
V7     V11    10.0   .     S
V7     V24    10.0   1_655     S
V8     V12    10.0   .     S
V8     V23    10.0   1_656     S
V9     V11    10.0   .     S
V9     V18    10.0   .     S
V10     V12    10.0   .     S
V10     V17    10.0   1_556     S
V11     V13    10.0   1_655     S
V12     V14    10.0   1_655     S
V13     V16    10.0   1_554     S
V13     V23    10.0   .     S
V13     V11    10.0   1_455     S
V14     V15    10.0   .     S
V14     V24    10.0   .     S
V14     V12    10.0   1_455     S
V15     V19    10.0   .     S
V15     V3    10.0   1_565     S
V16     V13    10.0   1_556     S
V16     V20    10.0   .     S
V16     V4    10.0   1_565     S
V17     V10    10.0   1_554     S
V17     V19    10.0   .     S
V17     V21    10.0   .     S
V18     V20    10.0   .     S
V18     V22    10.0   .     S
V19     V6    10.0   1_565     S
V20     V5    10.0   1_566     S
V21     V23    10.0   .     S
V22     V24    10.0   .     S
V23     V8    10.0   1_454     S
V24     V7    10.0   1_455     S
