data_wjd
_audit_creation_date              2019-12-31
_audit_creation_method            'Pymatgen'
_symmetry_space_group_name_H-M    'P1'
_symmetry_Int_Tables_number       1
loop_
_symmetry_equiv_pos_as_xyz
  x,y,z
_cell_length_a                    39.657
_cell_length_b                    39.657
_cell_length_c                    37.9432
_cell_angle_alpha                 90.0
_cell_angle_beta                 90.0
_cell_angle_gamma                 120.0
loop_
_atom_site_label
_atom_site_type_symbol
_atom_site_fract_x
_atom_site_fract_y
_atom_site_fract_z
V1     V     0.3333   0.3976   0.6182
V2     V     0.3333   0.8976   0.6182
V3     V     0.8333   0.3976   0.6182
V4     V     0.8333   0.8976   0.6182
V5     V     0.3976   0.3333   0.3818
V6     V     0.3976   0.8333   0.3818
V7     V     0.8976   0.3333   0.3818
V8     V     0.8976   0.8333   0.3818
V9     V     0.1667   0.0643   0.3818
V10     V     0.1667   0.5643   0.3818
V11     V     0.6667   0.0643   0.3818
V12     V     0.6667   0.5643   0.3818
V13     V     0.1024   0.4357   0.6182
V14     V     0.1024   0.9357   0.6182
V15     V     0.6024   0.4357   0.6182
V16     V     0.6024   0.9357   0.6182
V17     V     0.0643   0.1667   0.6182
V18     V     0.0643   0.6667   0.6182
V19     V     0.5643   0.1667   0.6182
V20     V     0.5643   0.6667   0.6182
V21     V     0.4357   0.1024   0.3818
V22     V     0.4357   0.6024   0.3818
V23     V     0.9357   0.1024   0.3818
V24     V     0.9357   0.6024   0.3818
V25     V     0.3333   0.3976   0.8818
V26     V     0.3333   0.8976   0.8818
V27     V     0.8333   0.3976   0.8818
V28     V     0.8333   0.8976   0.8818
V29     V     0.3976   0.3333   0.1182
V30     V     0.3976   0.8333   0.1182
V31     V     0.8976   0.3333   0.1182
V32     V     0.8976   0.8333   0.1182
V33     V     0.1667   0.0643   0.1182
V34     V     0.1667   0.5643   0.1182
V35     V     0.6667   0.0643   0.1182
V36     V     0.6667   0.5643   0.1182
V37     V     0.1024   0.4357   0.8818
V38     V     0.1024   0.9357   0.8818
V39     V     0.6024   0.4357   0.8818
V40     V     0.6024   0.9357   0.8818
V41     V     0.0643   0.1667   0.8818
V42     V     0.0643   0.6667   0.8818
V43     V     0.5643   0.1667   0.8818
V44     V     0.5643   0.6667   0.8818
V45     V     0.4357   0.1024   0.1182
V46     V     0.4357   0.6024   0.1182
V47     V     0.9357   0.1024   0.1182
V48     V     0.9357   0.6024   0.1182
loop_
_geom_bond_atom_site_label_1
_geom_bond_atom_site_label_2
_geom_bond_distance
_geom_bond_site_symmetry_2
_ccdc_geom_bond_type
V1     V5    10.0   .     S
V1     V15    10.0   .     S
V1     V20    10.0   .     S
V1     V17    10.0   .     S
V1     V13    10.0   .     S
V1     V25    10.0   .     S
V2     V6    10.0   .     S
V2     V16    10.0   .     S
V2     V19    10.0   1_565     S
V2     V18    10.0   .     S
V2     V14    10.0   .     S
V2     V26    10.0   .     S
V3     V7    10.0   .     S
V3     V13    10.0   1_655     S
V3     V18    10.0   1_655     S
V3     V19    10.0   .     S
V3     V15    10.0   .     S
V3     V27    10.0   .     S
V4     V8    10.0   .     S
V4     V14    10.0   1_655     S
V4     V17    10.0   1_665     S
V4     V20    10.0   .     S
V4     V16    10.0   .     S
V4     V28    10.0   .     S
V5     V9    10.0   .     S
V5     V21    10.0   .     S
V5     V22    10.0   .     S
V5     V12    10.0   .     S
V5     V29    10.0   .     S
V6     V10    10.0   .     S
V6     V22    10.0   .     S
V6     V21    10.0   1_565     S
V6     V11    10.0   1_565     S
V6     V30    10.0   .     S
V7     V11    10.0   .     S
V7     V23    10.0   .     S
V7     V24    10.0   .     S
V7     V10    10.0   1_655     S
V7     V31    10.0   .     S
V8     V12    10.0   .     S
V8     V24    10.0   .     S
V8     V23    10.0   1_565     S
V8     V9    10.0   1_665     S
V8     V32    10.0   .     S
V9     V21    10.0   .     S
V9     V14    10.0   1_545     S
V9     V8    10.0   1_445     S
V9     V23    10.0   1_455     S
V9     V33    10.0   .     S
V10     V22    10.0   .     S
V10     V13    10.0   .     S
V10     V7    10.0   1_455     S
V10     V24    10.0   1_455     S
V10     V34    10.0   .     S
V11     V23    10.0   .     S
V11     V16    10.0   1_545     S
V11     V6    10.0   1_545     S
V11     V21    10.0   .     S
V11     V35    10.0   .     S
V12     V24    10.0   .     S
V12     V15    10.0   .     S
V12     V22    10.0   .     S
V12     V36    10.0   .     S
V13     V3    10.0   1_455     S
V13     V18    10.0   .     S
V13     V17    10.0   .     S
V13     V37    10.0   .     S
V14     V4    10.0   1_455     S
V14     V9    10.0   1_565     S
V14     V17    10.0   1_565     S
V14     V18    10.0   .     S
V14     V38    10.0   .     S
V15     V20    10.0   .     S
V15     V19    10.0   .     S
V15     V39    10.0   .     S
V16     V11    10.0   1_565     S
V16     V19    10.0   1_565     S
V16     V20    10.0   .     S
V16     V40    10.0   .     S
V17     V14    10.0   1_545     S
V17     V23    10.0   1_455     S
V17     V4    10.0   1_445     S
V17     V41    10.0   .     S
V18     V24    10.0   1_455     S
V18     V3    10.0   1_455     S
V18     V42    10.0   .     S
V19     V16    10.0   1_545     S
V19     V21    10.0   .     S
V19     V2    10.0   1_545     S
V19     V43    10.0   .     S
V20     V22    10.0   .     S
V20     V44    10.0   .     S
V21     V6    10.0   1_545     S
V21     V45    10.0   .     S
V22     V46    10.0   .     S
V23     V8    10.0   1_545     S
V23     V17    10.0   1_655     S
V23     V9    10.0   1_655     S
V23     V47    10.0   .     S
V24     V18    10.0   1_655     S
V24     V10    10.0   1_655     S
V24     V48    10.0   .     S
V25     V29    10.0   1_556     S
V25     V39    10.0   .     S
V25     V44    10.0   .     S
V25     V41    10.0   .     S
V25     V37    10.0   .     S
V26     V30    10.0   1_556     S
V26     V40    10.0   .     S
V26     V43    10.0   1_565     S
V26     V42    10.0   .     S
V26     V38    10.0   .     S
V27     V31    10.0   1_556     S
V27     V37    10.0   1_655     S
V27     V42    10.0   1_655     S
V27     V43    10.0   .     S
V27     V39    10.0   .     S
V28     V32    10.0   1_556     S
V28     V38    10.0   1_655     S
V28     V41    10.0   1_665     S
V28     V44    10.0   .     S
V28     V40    10.0   .     S
V29     V45    10.0   .     S
V29     V33    10.0   .     S
V29     V25    10.0   1_554     S
V29     V46    10.0   .     S
V29     V36    10.0   .     S
V30     V46    10.0   .     S
V30     V34    10.0   .     S
V30     V26    10.0   1_554     S
V30     V45    10.0   1_565     S
V30     V35    10.0   1_565     S
V31     V47    10.0   .     S
V31     V35    10.0   .     S
V31     V27    10.0   1_554     S
V31     V48    10.0   .     S
V31     V34    10.0   1_655     S
V32     V48    10.0   .     S
V32     V36    10.0   .     S
V32     V28    10.0   1_554     S
V32     V47    10.0   1_565     S
V32     V33    10.0   1_665     S
V33     V45    10.0   .     S
V33     V38    10.0   1_544     S
V33     V32    10.0   1_445     S
V33     V47    10.0   1_455     S
V34     V46    10.0   .     S
V34     V37    10.0   1_554     S
V34     V31    10.0   1_455     S
V34     V48    10.0   1_455     S
V35     V47    10.0   .     S
V35     V40    10.0   1_544     S
V35     V30    10.0   1_545     S
V35     V45    10.0   .     S
V36     V48    10.0   .     S
V36     V39    10.0   1_554     S
V36     V46    10.0   .     S
V37     V27    10.0   1_455     S
V37     V34    10.0   1_556     S
V37     V42    10.0   .     S
V37     V41    10.0   .     S
V38     V28    10.0   1_455     S
V38     V33    10.0   1_566     S
V38     V41    10.0   1_565     S
V38     V42    10.0   .     S
V39     V36    10.0   1_556     S
V39     V44    10.0   .     S
V39     V43    10.0   .     S
V40     V35    10.0   1_566     S
V40     V43    10.0   1_565     S
V40     V44    10.0   .     S
V41     V38    10.0   1_545     S
V41     V47    10.0   1_456     S
V41     V28    10.0   1_445     S
V42     V48    10.0   1_456     S
V42     V27    10.0   1_455     S
V43     V40    10.0   1_545     S
V43     V45    10.0   1_556     S
V43     V26    10.0   1_545     S
V44     V46    10.0   1_556     S
V45     V30    10.0   1_545     S
V45     V43    10.0   1_554     S
V46     V44    10.0   1_554     S
V47     V32    10.0   1_545     S
V47     V41    10.0   1_654     S
V47     V33    10.0   1_655     S
V48     V42    10.0   1_654     S
V48     V34    10.0   1_655     S
