data_wjh
_audit_creation_date              2019-12-31
_audit_creation_method            'Pymatgen'
_symmetry_space_group_name_H-M    'P1'
_symmetry_Int_Tables_number       1
loop_
_symmetry_equiv_pos_as_xyz
  x,y,z
_cell_length_a                    40.7832
_cell_length_b                    40.7832
_cell_length_c                    35.9558
_cell_angle_alpha                 90.0
_cell_angle_beta                 90.0
_cell_angle_gamma                 120.0
loop_
_atom_site_label
_atom_site_type_symbol
_atom_site_fract_x
_atom_site_fract_y
_atom_site_fract_z
V1     V     0.1416   0.6245   0.4167
V2     V     0.1416   0.6245   0.9167
V3     V     0.3755   0.8584   0.0
V4     V     0.3755   0.8584   0.5
V5     V     0.4829   0.8584   0.25
V6     V     0.4829   0.8584   0.75
V7     V     0.4829   0.6245   0.3333
V8     V     0.4829   0.6245   0.8333
V9     V     0.3755   0.5171   0.0833
V10     V     0.3755   0.5171   0.5833
V11     V     0.1416   0.5171   0.1667
V12     V     0.1416   0.5171   0.6667
V13     V     0.6245   0.4829   0.3333
V14     V     0.6245   0.4829   0.8333
V15     V     0.8584   0.4829   0.4167
V16     V     0.8584   0.4829   0.9167
V17     V     0.8584   0.3755   0.1667
V18     V     0.8584   0.3755   0.6667
V19     V     0.6245   0.1416   0.25
V20     V     0.6245   0.1416   0.75
V21     V     0.5171   0.1416   0.0
V22     V     0.5171   0.1416   0.5
V23     V     0.5171   0.3755   0.0833
V24     V     0.5171   0.3755   0.5833
loop_
_geom_bond_atom_site_label_1
_geom_bond_atom_site_label_2
_geom_bond_distance
_geom_bond_site_symmetry_2
_ccdc_geom_bond_type
V1     V11    10.0   .     S
V1     V12    10.0   .     S
V1     V4    9.999   .     S
V1     V15    10.0   1_455     S
V2     V12    10.0   .     S
V2     V11    10.0   1_556     S
V2     V3    9.999   1_556     S
V2     V16    10.0   1_455     S
V3     V5    10.0   .     S
V3     V2    9.999   1_554     S
V3     V6    10.0   1_554     S
V3     V21    10.0   1_565     S
V4     V6    10.0   .     S
V4     V5    10.0   .     S
V4     V22    10.0   1_565     S
V5     V7    9.999   .     S
V5     V19    10.0   1_565     S
V6     V3    10.0   1_556     S
V6     V8    9.999   .     S
V6     V20    10.0   1_565     S
V7     V10    10.0   .     S
V7     V9    10.0   .     S
V7     V13    10.0   .     S
V8     V9    10.0   1_556     S
V8     V10    10.0   .     S
V8     V14    10.0   .     S
V9     V8    10.0   1_554     S
V9     V11    9.999   .     S
V9     V23    10.0   .     S
V10     V12    9.999   .     S
V10     V24    10.0   .     S
V11     V2    10.0   1_554     S
V11     V17    10.0   1_455     S
V12     V18    10.0   1_455     S
V13     V23    10.0   .     S
V13     V24    10.0   .     S
V13     V15    9.999   .     S
V14     V24    10.0   .     S
V14     V23    10.0   1_556     S
V14     V16    9.999   .     S
V15     V18    10.0   .     S
V15     V17    10.0   .     S
V15     V1    10.0   1_655     S
V16     V17    10.0   1_556     S
V16     V18    10.0   .     S
V16     V2    10.0   1_655     S
V17     V16    10.0   1_554     S
V17     V19    9.999   .     S
V17     V11    10.0   1_655     S
V18     V20    9.999   .     S
V18     V12    10.0   1_655     S
V19     V22    10.0   .     S
V19     V21    10.0   .     S
V19     V5    10.0   1_545     S
V20     V21    10.0   1_556     S
V20     V22    10.0   .     S
V20     V6    10.0   1_545     S
V21     V20    10.0   1_554     S
V21     V23    9.999   .     S
V21     V3    10.0   1_545     S
V22     V24    9.999   .     S
V22     V4    10.0   1_545     S
V23     V14    10.0   1_554     S
