data_wjk
_audit_creation_date              2019-12-31
_audit_creation_method            'Pymatgen'
_symmetry_space_group_name_H-M    'P1'
_symmetry_Int_Tables_number       1
loop_
_symmetry_equiv_pos_as_xyz
  x,y,z
_cell_length_a                    38.637
_cell_length_b                    38.637
_cell_length_c                    50.1912
_cell_angle_alpha                 90.0
_cell_angle_beta                 90.0
_cell_angle_gamma                 120.0
loop_
_atom_site_label
_atom_site_type_symbol
_atom_site_fract_x
_atom_site_fract_y
_atom_site_fract_z
V1     V     0.4613   0.1057   0.5704
V2     V     0.4613   0.6057   0.5704
V3     V     0.9613   0.1057   0.5704
V4     V     0.9613   0.6057   0.5704
V5     V     0.1443   0.1057   0.4296
V6     V     0.1443   0.6057   0.4296
V7     V     0.6443   0.1057   0.4296
V8     V     0.6443   0.6057   0.4296
V9     V     0.0387   0.3943   0.5704
V10     V     0.0387   0.8943   0.5704
V11     V     0.5387   0.3943   0.5704
V12     V     0.5387   0.8943   0.5704
V13     V     0.3557   0.3943   0.4296
V14     V     0.3557   0.8943   0.4296
V15     V     0.8557   0.3943   0.4296
V16     V     0.8557   0.8943   0.4296
V17     V     0.0387   0.1443   0.7629
V18     V     0.0387   0.6443   0.7629
V19     V     0.5387   0.1443   0.7629
V20     V     0.5387   0.6443   0.7629
V21     V     0.3557   0.4613   0.9038
V22     V     0.3557   0.9613   0.9038
V23     V     0.8557   0.4613   0.9038
V24     V     0.8557   0.9613   0.9038
V25     V     0.3943   0.0387   0.0962
V26     V     0.3943   0.5387   0.0962
V27     V     0.8943   0.0387   0.0962
V28     V     0.8943   0.5387   0.0962
V29     V     0.3943   0.3557   0.2371
V30     V     0.3943   0.8557   0.2371
V31     V     0.8943   0.3557   0.2371
V32     V     0.8943   0.8557   0.2371
V33     V     0.4613   0.3557   0.7629
V34     V     0.4613   0.8557   0.7629
V35     V     0.9613   0.3557   0.7629
V36     V     0.9613   0.8557   0.7629
V37     V     0.1057   0.4613   0.0962
V38     V     0.1057   0.9613   0.0962
V39     V     0.6057   0.4613   0.0962
V40     V     0.6057   0.9613   0.0962
V41     V     0.1443   0.0387   0.9038
V42     V     0.1443   0.5387   0.9038
V43     V     0.6443   0.0387   0.9038
V44     V     0.6443   0.5387   0.9038
V45     V     0.1057   0.1443   0.2371
V46     V     0.1057   0.6443   0.2371
V47     V     0.6057   0.1443   0.2371
V48     V     0.6057   0.6443   0.2371
loop_
_geom_bond_atom_site_label_1
_geom_bond_atom_site_label_2
_geom_bond_distance
_geom_bond_site_symmetry_2
_ccdc_geom_bond_type
V1     V7    10.0   .     S
V1     V19    10.0   .     S
V1     V12    10.0   1_545     S
V1     V14    10.0   1_545     S
V1     V11    10.0   .     S
V2     V8    10.0   .     S
V2     V20    10.0   .     S
V2     V11    10.0   .     S
V2     V13    10.0   .     S
V2     V12    10.0   .     S
V3     V5    10.0   1_655     S
V3     V17    10.0   1_655     S
V3     V10    10.0   1_645     S
V3     V16    10.0   1_545     S
V3     V9    10.0   1_655     S
V4     V6    10.0   1_655     S
V4     V18    10.0   1_655     S
V4     V9    10.0   1_655     S
V4     V15    10.0   .     S
V4     V10    10.0   1_655     S
V5     V3    10.0   1_455     S
V5     V10    10.0   1_545     S
V5     V13    10.0   .     S
V5     V16    10.0   1_445     S
V5     V45    10.0   .     S
V6     V4    10.0   1_455     S
V6     V9    10.0   .     S
V6     V14    10.0   .     S
V6     V15    10.0   1_455     S
V6     V46    10.0   .     S
V7     V12    10.0   1_545     S
V7     V15    10.0   .     S
V7     V14    10.0   1_545     S
V7     V47    10.0   .     S
V8     V11    10.0   .     S
V8     V16    10.0   .     S
V8     V13    10.0   .     S
V8     V48    10.0   .     S
V9     V4    10.0   1_455     S
V9     V15    10.0   1_455     S
V9     V35    10.0   1_455     S
V9     V3    10.0   1_455     S
V10     V3    10.0   1_465     S
V10     V5    10.0   1_565     S
V10     V16    10.0   1_455     S
V10     V36    10.0   1_455     S
V10     V4    10.0   1_455     S
V11     V13    10.0   .     S
V11     V33    10.0   .     S
V12     V1    10.0   1_565     S
V12     V7    10.0   1_565     S
V12     V14    10.0   .     S
V12     V34    10.0   .     S
V13     V29    10.0   .     S
V14     V1    10.0   1_565     S
V14     V7    10.0   1_565     S
V14     V30    10.0   .     S
V15     V9    10.0   1_655     S
V15     V6    10.0   1_655     S
V15     V31    10.0   .     S
V16     V3    10.0   1_565     S
V16     V10    10.0   1_655     S
V16     V5    10.0   1_665     S
V16     V32    10.0   .     S
V17     V3    10.0   1_455     S
V17     V41    10.0   .     S
V17     V24    10.0   1_445     S
V17     V35    10.0   1_455     S
V17     V36    10.0   1_445     S
V18     V4    10.0   1_455     S
V18     V42    10.0   .     S
V18     V23    10.0   1_455     S
V18     V36    10.0   1_455     S
V18     V35    10.0   1_455     S
V19     V43    10.0   .     S
V19     V22    10.0   1_545     S
V19     V33    10.0   .     S
V19     V34    10.0   1_545     S
V20     V44    10.0   .     S
V20     V21    10.0   .     S
V20     V34    10.0   .     S
V20     V33    10.0   .     S
V21     V44    10.0   .     S
V21     V33    10.0   .     S
V21     V26    10.0   1_556     S
V21     V42    10.0   .     S
V22     V43    10.0   1_565     S
V22     V34    10.0   .     S
V22     V19    10.0   1_565     S
V22     V25    10.0   1_566     S
V22     V41    10.0   1_565     S
V23     V42    10.0   1_655     S
V23     V35    10.0   .     S
V23     V18    10.0   1_655     S
V23     V28    10.0   1_556     S
V23     V44    10.0   .     S
V24     V41    10.0   1_665     S
V24     V36    10.0   .     S
V24     V17    10.0   1_665     S
V24     V27    10.0   1_566     S
V24     V43    10.0   1_565     S
V25     V47    10.0   .     S
V25     V22    10.0   1_544     S
V25     V30    10.0   1_545     S
V25     V38    10.0   1_545     S
V25     V40    10.0   1_545     S
V26     V48    10.0   .     S
V26     V21    10.0   1_554     S
V26     V29    10.0   .     S
V26     V37    10.0   .     S
V26     V39    10.0   .     S
V27     V45    10.0   1_655     S
V27     V24    10.0   1_544     S
V27     V32    10.0   1_545     S
V27     V40    10.0   1_545     S
V27     V38    10.0   1_645     S
V28     V46    10.0   1_655     S
V28     V23    10.0   1_554     S
V28     V31    10.0   .     S
V28     V39    10.0   .     S
V28     V37    10.0   1_655     S
V29     V48    10.0   .     S
V29     V39    10.0   .     S
V29     V45    10.0   .     S
V30     V47    10.0   1_565     S
V30     V40    10.0   .     S
V30     V25    10.0   1_565     S
V30     V46    10.0   .     S
V31     V46    10.0   1_655     S
V31     V37    10.0   1_655     S
V31     V47    10.0   .     S
V32     V45    10.0   1_665     S
V32     V38    10.0   1_655     S
V32     V27    10.0   1_565     S
V32     V48    10.0   .     S
V33     V44    10.0   .     S
V34     V43    10.0   1_565     S
V34     V19    10.0   1_565     S
V35     V9    10.0   1_655     S
V35     V42    10.0   1_655     S
V35     V17    10.0   1_655     S
V35     V18    10.0   1_655     S
V36     V10    10.0   1_655     S
V36     V41    10.0   1_665     S
V36     V18    10.0   1_655     S
V36     V17    10.0   1_665     S
V37     V31    10.0   1_455     S
V37     V42    10.0   1_554     S
V37     V46    10.0   .     S
V37     V28    10.0   1_455     S
V38     V32    10.0   1_455     S
V38     V41    10.0   1_564     S
V38     V45    10.0   1_565     S
V38     V25    10.0   1_565     S
V38     V27    10.0   1_465     S
V39     V44    10.0   1_554     S
V39     V48    10.0   .     S
V40     V43    10.0   1_564     S
V40     V47    10.0   1_565     S
V40     V27    10.0   1_565     S
V40     V25    10.0   1_565     S
V41     V24    10.0   1_445     S
V41     V36    10.0   1_445     S
V41     V38    10.0   1_546     S
V41     V22    10.0   1_545     S
V42     V23    10.0   1_455     S
V42     V35    10.0   1_455     S
V42     V37    10.0   1_556     S
V43     V22    10.0   1_545     S
V43     V34    10.0   1_545     S
V43     V40    10.0   1_546     S
V43     V24    10.0   1_545     S
V44     V39    10.0   1_556     S
V45     V32    10.0   1_445     S
V45     V27    10.0   1_455     S
V45     V38    10.0   1_545     S
V46     V31    10.0   1_455     S
V46     V28    10.0   1_455     S
V47     V30    10.0   1_545     S
V47     V40    10.0   1_545     S
