data_wjl
_audit_creation_date              2019-12-31
_audit_creation_method            'Pymatgen'
_symmetry_space_group_name_H-M    'P1'
_symmetry_Int_Tables_number       1
loop_
_symmetry_equiv_pos_as_xyz
  x,y,z
_cell_length_a                    37.5524
_cell_length_b                    37.5524
_cell_length_c                    45.8206
_cell_angle_alpha                 90.0
_cell_angle_beta                 90.0
_cell_angle_gamma                 120.0
loop_
_atom_site_label
_atom_site_type_symbol
_atom_site_fract_x
_atom_site_fract_y
_atom_site_fract_z
V1     V     0.3869   0.0848   0.6732
V2     V     0.3869   0.5848   0.6732
V3     V     0.8869   0.0848   0.6732
V4     V     0.8869   0.5848   0.6732
V5     V     0.3869   0.3022   0.4935
V6     V     0.3869   0.8022   0.4935
V7     V     0.8869   0.3022   0.4935
V8     V     0.8869   0.8022   0.4935
V9     V     0.3022   0.3869   0.8398
V10     V     0.3022   0.8869   0.8398
V11     V     0.8022   0.3869   0.8398
V12     V     0.8022   0.8869   0.8398
V13     V     0.0848   0.3869   0.6602
V14     V     0.0848   0.8869   0.6602
V15     V     0.5848   0.3869   0.6602
V16     V     0.5848   0.8869   0.6602
V17     V     0.1978   0.0848   0.8268
V18     V     0.1978   0.5848   0.8268
V19     V     0.6978   0.0848   0.8268
V20     V     0.6978   0.5848   0.8268
V21     V     0.4152   0.3022   0.0065
V22     V     0.4152   0.8022   0.0065
V23     V     0.9152   0.3022   0.0065
V24     V     0.9152   0.8022   0.0065
V25     V     0.1131   0.1978   0.9935
V26     V     0.1131   0.6978   0.9935
V27     V     0.6131   0.1978   0.9935
V28     V     0.6131   0.6978   0.9935
V29     V     0.1131   0.4152   0.1732
V30     V     0.1131   0.9152   0.1732
V31     V     0.6131   0.4152   0.1732
V32     V     0.6131   0.9152   0.1732
V33     V     0.3022   0.4152   0.3268
V34     V     0.3022   0.9152   0.3268
V35     V     0.8022   0.4152   0.3268
V36     V     0.8022   0.9152   0.3268
V37     V     0.0848   0.1978   0.5065
V38     V     0.0848   0.6978   0.5065
V39     V     0.5848   0.1978   0.5065
V40     V     0.5848   0.6978   0.5065
V41     V     0.1978   0.1131   0.3398
V42     V     0.1978   0.6131   0.3398
V43     V     0.6978   0.1131   0.3398
V44     V     0.6978   0.6131   0.3398
V45     V     0.4152   0.1131   0.1602
V46     V     0.4152   0.6131   0.1602
V47     V     0.9152   0.1131   0.1602
V48     V     0.9152   0.6131   0.1602
loop_
_geom_bond_atom_site_label_1
_geom_bond_atom_site_label_2
_geom_bond_distance
_geom_bond_site_symmetry_2
_ccdc_geom_bond_type
V1     V39    10.0   .     S
V1     V15    10.0   .     S
V1     V10    10.0   1_545     S
V1     V17    10.0   .     S
V1     V14    10.0   1_545     S
V2     V40    10.0   .     S
V2     V16    10.0   .     S
V2     V9    10.0   .     S
V2     V18    10.0   .     S
V2     V13    10.0   .     S
V3     V37    10.0   1_655     S
V3     V13    10.0   1_655     S
V3     V12    10.0   1_545     S
V3     V19    10.0   .     S
V3     V16    10.0   1_545     S
V4     V38    10.0   1_655     S
V4     V14    10.0   1_655     S
V4     V11    10.0   .     S
V4     V20    10.0   .     S
V4     V15    10.0   .     S
V5     V15    10.0   .     S
V5     V39    10.0   .     S
V5     V33    10.0   .     S
V5     V37    10.0   .     S
V5     V41    10.0   .     S
V6     V16    10.0   .     S
V6     V40    10.0   .     S
V6     V34    10.0   .     S
V6     V38    10.0   .     S
V6     V42    10.0   .     S
V7     V13    10.0   1_655     S
V7     V37    10.0   1_655     S
V7     V35    10.0   .     S
V7     V39    10.0   .     S
V7     V43    10.0   .     S
V8     V14    10.0   1_655     S
V8     V38    10.0   1_655     S
V8     V36    10.0   .     S
V8     V40    10.0   .     S
V8     V44    10.0   .     S
V9     V18    10.0   .     S
V9     V21    10.0   1_556     S
V9     V25    10.0   .     S
V9     V17    10.0   .     S
V10     V1    10.0   1_565     S
V10     V17    10.0   1_565     S
V10     V22    10.0   1_556     S
V10     V26    10.0   .     S
V10     V18    10.0   .     S
V11     V20    10.0   .     S
V11     V23    10.0   1_556     S
V11     V27    10.0   .     S
V11     V19    10.0   .     S
V12     V3    10.0   1_565     S
V12     V19    10.0   1_565     S
V12     V24    10.0   1_556     S
V12     V28    10.0   .     S
V12     V20    10.0   .     S
V13     V7    10.0   1_455     S
V13     V3    10.0   1_455     S
V13     V37    10.0   .     S
V13     V18    10.0   .     S
V14     V8    10.0   1_455     S
V14     V4    10.0   1_455     S
V14     V38    10.0   .     S
V14     V17    10.0   1_565     S
V14     V1    10.0   1_565     S
V15     V39    10.0   .     S
V15     V20    10.0   .     S
V16     V40    10.0   .     S
V16     V19    10.0   1_565     S
V16     V3    10.0   1_565     S
V17     V14    10.0   1_545     S
V17     V10    10.0   1_545     S
V17     V25    10.0   .     S
V18     V26    10.0   .     S
V19     V16    10.0   1_545     S
V19     V12    10.0   1_545     S
V19     V27    10.0   .     S
V20     V28    10.0   .     S
V21     V9    10.0   1_554     S
V21     V25    10.0   1_554     S
V21     V31    10.0   .     S
V21     V45    10.0   .     S
V21     V27    10.0   1_554     S
V22     V10    10.0   1_554     S
V22     V26    10.0   1_554     S
V22     V32    10.0   .     S
V22     V46    10.0   .     S
V22     V28    10.0   1_554     S
V23     V11    10.0   1_554     S
V23     V27    10.0   1_554     S
V23     V29    10.0   1_655     S
V23     V47    10.0   .     S
V23     V25    10.0   1_654     S
V24     V12    10.0   1_554     S
V24     V28    10.0   1_554     S
V24     V30    10.0   1_655     S
V24     V48    10.0   .     S
V24     V26    10.0   1_654     S
V25     V21    10.0   1_556     S
V25     V47    10.0   1_456     S
V25     V23    10.0   1_456     S
V26     V22    10.0   1_556     S
V26     V48    10.0   1_456     S
V26     V24    10.0   1_456     S
V27     V23    10.0   1_556     S
V27     V45    10.0   1_556     S
V27     V21    10.0   1_556     S
V28     V24    10.0   1_556     S
V28     V46    10.0   1_556     S
V28     V22    10.0   1_556     S
V29     V23    10.0   1_455     S
V29     V47    10.0   1_455     S
V29     V42    10.0   .     S
V29     V33    10.0   .     S
V29     V46    10.0   .     S
V30     V24    10.0   1_455     S
V30     V48    10.0   1_455     S
V30     V41    10.0   1_565     S
V30     V34    10.0   .     S
V30     V45    10.0   1_565     S
V31     V45    10.0   .     S
V31     V44    10.0   .     S
V31     V35    10.0   .     S
V31     V48    10.0   .     S
V32     V46    10.0   .     S
V32     V43    10.0   1_565     S
V32     V36    10.0   .     S
V32     V47    10.0   1_565     S
V33     V41    10.0   .     S
V33     V46    10.0   .     S
V33     V42    10.0   .     S
V34     V42    10.0   .     S
V34     V45    10.0   1_565     S
V34     V41    10.0   1_565     S
V35     V43    10.0   .     S
V35     V48    10.0   .     S
V35     V44    10.0   .     S
V36     V44    10.0   .     S
V36     V47    10.0   1_565     S
V36     V43    10.0   1_565     S
V37     V3    10.0   1_455     S
V37     V7    10.0   1_455     S
V37     V41    10.0   .     S
V38     V4    10.0   1_455     S
V38     V8    10.0   1_455     S
V38     V42    10.0   .     S
V39     V43    10.0   .     S
V40     V44    10.0   .     S
V41     V30    10.0   1_545     S
V41     V34    10.0   1_545     S
V43     V32    10.0   1_545     S
V43     V36    10.0   1_545     S
V45     V27    10.0   1_554     S
V45     V34    10.0   1_545     S
V45     V30    10.0   1_545     S
V46     V28    10.0   1_554     S
V47     V25    10.0   1_654     S
V47     V29    10.0   1_655     S
V47     V36    10.0   1_545     S
V47     V32    10.0   1_545     S
V48     V26    10.0   1_654     S
V48     V30    10.0   1_655     S
