data_wjn
_audit_creation_date              2019-12-31
_audit_creation_method            'Pymatgen'
_symmetry_space_group_name_H-M    'P1'
_symmetry_Int_Tables_number       1
loop_
_symmetry_equiv_pos_as_xyz
  x,y,z
_cell_length_a                    38.637
_cell_length_b                    38.637
_cell_length_c                    51.2131
_cell_angle_alpha                 90.0
_cell_angle_beta                 90.0
_cell_angle_gamma                 120.0
loop_
_atom_site_label
_atom_site_type_symbol
_atom_site_fract_x
_atom_site_fract_y
_atom_site_fract_z
V1     V     0.2887   0.3943   0.569
V2     V     0.2887   0.8943   0.569
V3     V     0.7887   0.3943   0.569
V4     V     0.7887   0.8943   0.569
V5     V     0.2113   0.1057   0.569
V6     V     0.2113   0.6057   0.569
V7     V     0.7113   0.1057   0.569
V8     V     0.7113   0.6057   0.569
V9     V     0.2887   0.3943   0.7643
V10     V     0.2887   0.8943   0.7643
V11     V     0.7887   0.3943   0.7643
V12     V     0.7887   0.8943   0.7643
V13     V     0.2113   0.1057   0.7643
V14     V     0.2113   0.6057   0.7643
V15     V     0.7113   0.1057   0.7643
V16     V     0.7113   0.6057   0.7643
V17     V     0.1057   0.2113   0.9024
V18     V     0.1057   0.7113   0.9024
V19     V     0.6057   0.2113   0.9024
V20     V     0.6057   0.7113   0.9024
V21     V     0.3943   0.2887   0.9024
V22     V     0.3943   0.7887   0.9024
V23     V     0.8943   0.2887   0.9024
V24     V     0.8943   0.7887   0.9024
V25     V     0.1057   0.2113   0.0976
V26     V     0.1057   0.7113   0.0976
V27     V     0.6057   0.2113   0.0976
V28     V     0.6057   0.7113   0.0976
V29     V     0.3943   0.2887   0.0976
V30     V     0.3943   0.7887   0.0976
V31     V     0.8943   0.2887   0.0976
V32     V     0.8943   0.7887   0.0976
V33     V     0.1057   0.3943   0.431
V34     V     0.1057   0.8943   0.431
V35     V     0.6057   0.3943   0.431
V36     V     0.6057   0.8943   0.431
V37     V     0.3943   0.1057   0.431
V38     V     0.3943   0.6057   0.431
V39     V     0.8943   0.1057   0.431
V40     V     0.8943   0.6057   0.431
V41     V     0.1057   0.3943   0.2357
V42     V     0.1057   0.8943   0.2357
V43     V     0.6057   0.3943   0.2357
V44     V     0.6057   0.8943   0.2357
V45     V     0.3943   0.1057   0.2357
V46     V     0.3943   0.6057   0.2357
V47     V     0.8943   0.1057   0.2357
V48     V     0.8943   0.6057   0.2357
loop_
_geom_bond_atom_site_label_1
_geom_bond_atom_site_label_2
_geom_bond_distance
_geom_bond_site_symmetry_2
_ccdc_geom_bond_type
V1     V5    10.0   .     S
V1     V9    10.0   .     S
V1     V33    10.0   .     S
V1     V6    10.0   .     S
V1     V38    10.0   .     S
V2     V6    10.0   .     S
V2     V10    10.0   .     S
V2     V34    10.0   .     S
V2     V5    10.0   1_565     S
V2     V37    10.0   1_565     S
V3     V7    10.0   .     S
V3     V11    10.0   .     S
V3     V35    10.0   .     S
V3     V8    10.0   .     S
V3     V40    10.0   .     S
V4     V8    10.0   .     S
V4     V12    10.0   .     S
V4     V36    10.0   .     S
V4     V7    10.0   1_565     S
V4     V39    10.0   1_565     S
V5     V13    10.0   .     S
V5     V37    10.0   .     S
V5     V2    10.0   1_545     S
V5     V34    10.0   1_545     S
V6     V14    10.0   .     S
V6     V38    10.0   .     S
V6     V33    10.0   .     S
V7     V15    10.0   .     S
V7     V39    10.0   .     S
V7     V4    10.0   1_545     S
V7     V36    10.0   1_545     S
V8     V16    10.0   .     S
V8     V40    10.0   .     S
V8     V35    10.0   .     S
V9     V14    10.0   .     S
V9     V17    10.0   .     S
V9     V21    10.0   .     S
V9     V13    10.0   .     S
V10     V13    10.0   1_565     S
V10     V18    10.0   .     S
V10     V22    10.0   .     S
V10     V14    10.0   .     S
V11     V16    10.0   .     S
V11     V19    10.0   .     S
V11     V23    10.0   .     S
V11     V15    10.0   .     S
V12     V15    10.0   1_565     S
V12     V20    10.0   .     S
V12     V24    10.0   .     S
V12     V16    10.0   .     S
V13     V10    10.0   1_545     S
V13     V21    10.0   .     S
V13     V17    10.0   .     S
V14     V22    10.0   .     S
V14     V18    10.0   .     S
V15     V12    10.0   1_545     S
V15     V23    10.0   .     S
V15     V19    10.0   .     S
V16     V24    10.0   .     S
V16     V20    10.0   .     S
V17     V23    10.0   1_455     S
V17     V25    10.0   1_556     S
V17     V21    10.0   .     S
V18     V24    10.0   1_455     S
V18     V26    10.0   1_556     S
V18     V22    10.0   .     S
V19     V21    10.0   .     S
V19     V27    10.0   1_556     S
V19     V23    10.0   .     S
V20     V22    10.0   .     S
V20     V28    10.0   1_556     S
V20     V24    10.0   .     S
V21     V29    10.0   1_556     S
V22     V30    10.0   1_556     S
V23     V17    10.0   1_655     S
V23     V31    10.0   1_556     S
V24     V18    10.0   1_655     S
V24     V32    10.0   1_556     S
V25     V29    10.0   .     S
V25     V17    10.0   1_554     S
V25     V41    10.0   .     S
V25     V47    10.0   1_455     S
V25     V31    10.0   1_455     S
V26     V30    10.0   .     S
V26     V18    10.0   1_554     S
V26     V42    10.0   .     S
V26     V48    10.0   1_455     S
V26     V32    10.0   1_455     S
V27     V31    10.0   .     S
V27     V19    10.0   1_554     S
V27     V43    10.0   .     S
V27     V45    10.0   .     S
V27     V29    10.0   .     S
V28     V32    10.0   .     S
V28     V20    10.0   1_554     S
V28     V44    10.0   .     S
V28     V46    10.0   .     S
V28     V30    10.0   .     S
V29     V21    10.0   1_554     S
V29     V45    10.0   .     S
V29     V43    10.0   .     S
V30     V22    10.0   1_554     S
V30     V46    10.0   .     S
V30     V44    10.0   .     S
V31     V23    10.0   1_554     S
V31     V47    10.0   .     S
V31     V41    10.0   1_655     S
V31     V25    10.0   1_655     S
V32     V24    10.0   1_554     S
V32     V48    10.0   .     S
V32     V42    10.0   1_655     S
V32     V26    10.0   1_655     S
V33     V38    10.0   .     S
V33     V39    10.0   1_455     S
V33     V41    10.0   .     S
V34     V5    10.0   1_565     S
V34     V37    10.0   1_565     S
V34     V40    10.0   1_455     S
V34     V42    10.0   .     S
V35     V40    10.0   .     S
V35     V37    10.0   .     S
V35     V43    10.0   .     S
V36     V7    10.0   1_565     S
V36     V39    10.0   1_565     S
V36     V38    10.0   .     S
V36     V44    10.0   .     S
V37     V2    10.0   1_545     S
V37     V34    10.0   1_545     S
V37     V45    10.0   .     S
V38     V46    10.0   .     S
V39     V4    10.0   1_545     S
V39     V36    10.0   1_545     S
V39     V33    10.0   1_655     S
V39     V47    10.0   .     S
V40     V34    10.0   1_655     S
V40     V48    10.0   .     S
V41     V46    10.0   .     S
V41     V47    10.0   1_455     S
V41     V31    10.0   1_455     S
V42     V45    10.0   1_565     S
V42     V48    10.0   1_455     S
V42     V32    10.0   1_455     S
V43     V48    10.0   .     S
V43     V45    10.0   .     S
V44     V47    10.0   1_565     S
V44     V46    10.0   .     S
V45     V42    10.0   1_545     S
V47     V44    10.0   1_545     S
V47     V41    10.0   1_655     S
V47     V25    10.0   1_655     S
V48     V42    10.0   1_655     S
V48     V26    10.0   1_655     S
