data_wjq
_audit_creation_date              2019-12-31
_audit_creation_method            'Pymatgen'
_symmetry_space_group_name_H-M    'P1'
_symmetry_Int_Tables_number       1
loop_
_symmetry_equiv_pos_as_xyz
  x,y,z
_cell_length_a                    38.637
_cell_length_b                    38.637
_cell_length_c                    50.1908
_cell_angle_alpha                 90.0
_cell_angle_beta                 90.0
_cell_angle_gamma                 120.0
loop_
_atom_site_label
_atom_site_type_symbol
_atom_site_fract_x
_atom_site_fract_y
_atom_site_fract_z
V1     V     0.0387   0.1443   0.4038
V2     V     0.0387   0.6443   0.4038
V3     V     0.5387   0.1443   0.4038
V4     V     0.5387   0.6443   0.4038
V5     V     0.3557   0.4613   0.2629
V6     V     0.3557   0.9613   0.2629
V7     V     0.8557   0.4613   0.2629
V8     V     0.8557   0.9613   0.2629
V9     V     0.4613   0.3557   0.4038
V10     V     0.4613   0.8557   0.4038
V11     V     0.9613   0.3557   0.4038
V12     V     0.9613   0.8557   0.4038
V13     V     0.1443   0.0387   0.2629
V14     V     0.1443   0.5387   0.2629
V15     V     0.6443   0.0387   0.2629
V16     V     0.6443   0.5387   0.2629
V17     V     0.4613   0.1057   0.9296
V18     V     0.4613   0.6057   0.9296
V19     V     0.9613   0.1057   0.9296
V20     V     0.9613   0.6057   0.9296
V21     V     0.3557   0.3943   0.0704
V22     V     0.3557   0.8943   0.0704
V23     V     0.8557   0.3943   0.0704
V24     V     0.8557   0.8943   0.0704
V25     V     0.0387   0.3943   0.9296
V26     V     0.0387   0.8943   0.9296
V27     V     0.5387   0.3943   0.9296
V28     V     0.5387   0.8943   0.9296
V29     V     0.1443   0.1057   0.0704
V30     V     0.1443   0.6057   0.0704
V31     V     0.6443   0.1057   0.0704
V32     V     0.6443   0.6057   0.0704
V33     V     0.1057   0.1443   0.5962
V34     V     0.1057   0.6443   0.5962
V35     V     0.6057   0.1443   0.5962
V36     V     0.6057   0.6443   0.5962
V37     V     0.3943   0.3557   0.5962
V38     V     0.3943   0.8557   0.5962
V39     V     0.8943   0.3557   0.5962
V40     V     0.8943   0.8557   0.5962
V41     V     0.3943   0.0387   0.7371
V42     V     0.3943   0.5387   0.7371
V43     V     0.8943   0.0387   0.7371
V44     V     0.8943   0.5387   0.7371
V45     V     0.1057   0.4613   0.7371
V46     V     0.1057   0.9613   0.7371
V47     V     0.6057   0.4613   0.7371
V48     V     0.6057   0.9613   0.7371
loop_
_geom_bond_atom_site_label_1
_geom_bond_atom_site_label_2
_geom_bond_distance
_geom_bond_site_symmetry_2
_ccdc_geom_bond_type
V1     V12    10.0   1_445     S
V1     V13    10.0   .     S
V1     V8    10.0   1_445     S
V1     V11    10.0   1_455     S
V1     V33    10.0   .     S
V2     V11    10.0   1_455     S
V2     V14    10.0   .     S
V2     V7    10.0   1_455     S
V2     V12    10.0   1_455     S
V2     V34    10.0   .     S
V3     V10    10.0   1_545     S
V3     V15    10.0   .     S
V3     V6    10.0   1_545     S
V3     V9    10.0   .     S
V3     V35    10.0   .     S
V4     V9    10.0   .     S
V4     V16    10.0   .     S
V4     V5    10.0   .     S
V4     V10    10.0   .     S
V4     V36    10.0   .     S
V5     V9    10.0   .     S
V5     V16    10.0   .     S
V5     V14    10.0   .     S
V5     V21    10.0   .     S
V6     V10    10.0   .     S
V6     V15    10.0   1_565     S
V6     V3    10.0   1_565     S
V6     V13    10.0   1_565     S
V6     V22    10.0   .     S
V7     V11    10.0   .     S
V7     V14    10.0   1_655     S
V7     V2    10.0   1_655     S
V7     V16    10.0   .     S
V7     V23    10.0   .     S
V8     V12    10.0   .     S
V8     V13    10.0   1_665     S
V8     V1    10.0   1_665     S
V8     V15    10.0   1_565     S
V8     V24    10.0   .     S
V9     V16    10.0   .     S
V9     V37    10.0   .     S
V10     V3    10.0   1_565     S
V10     V15    10.0   1_565     S
V10     V38    10.0   .     S
V11     V2    10.0   1_655     S
V11     V14    10.0   1_655     S
V11     V1    10.0   1_655     S
V11     V39    10.0   .     S
V12     V1    10.0   1_665     S
V12     V13    10.0   1_665     S
V12     V2    10.0   1_655     S
V12     V40    10.0   .     S
V13     V8    10.0   1_445     S
V13     V12    10.0   1_445     S
V13     V6    10.0   1_545     S
V13     V29    10.0   .     S
V14     V7    10.0   1_455     S
V14     V11    10.0   1_455     S
V14     V30    10.0   .     S
V15     V6    10.0   1_545     S
V15     V10    10.0   1_545     S
V15     V8    10.0   1_545     S
V15     V31    10.0   .     S
V16     V32    10.0   .     S
V17     V22    10.0   1_546     S
V17     V28    10.0   1_545     S
V17     V31    10.0   1_556     S
V17     V27    10.0   .     S
V17     V41    10.0   .     S
V18     V21    10.0   1_556     S
V18     V27    10.0   .     S
V18     V32    10.0   1_556     S
V18     V28    10.0   .     S
V18     V42    10.0   .     S
V19     V24    10.0   1_546     S
V19     V26    10.0   1_645     S
V19     V29    10.0   1_656     S
V19     V25    10.0   1_655     S
V19     V43    10.0   .     S
V20     V23    10.0   1_556     S
V20     V25    10.0   1_655     S
V20     V30    10.0   1_656     S
V20     V26    10.0   1_655     S
V20     V44    10.0   .     S
V21     V18    10.0   1_554     S
V21     V32    10.0   .     S
V21     V27    10.0   1_554     S
V21     V29    10.0   .     S
V22     V17    10.0   1_564     S
V22     V31    10.0   1_565     S
V22     V28    10.0   1_554     S
V22     V30    10.0   .     S
V23     V20    10.0   1_554     S
V23     V30    10.0   1_655     S
V23     V25    10.0   1_654     S
V23     V31    10.0   .     S
V24     V19    10.0   1_564     S
V24     V29    10.0   1_665     S
V24     V26    10.0   1_654     S
V24     V32    10.0   .     S
V25     V30    10.0   1_556     S
V25     V20    10.0   1_455     S
V25     V23    10.0   1_456     S
V25     V19    10.0   1_455     S
V25     V45    10.0   .     S
V26     V29    10.0   1_566     S
V26     V19    10.0   1_465     S
V26     V24    10.0   1_456     S
V26     V20    10.0   1_455     S
V26     V46    10.0   .     S
V27     V32    10.0   1_556     S
V27     V21    10.0   1_556     S
V27     V47    10.0   .     S
V28     V31    10.0   1_566     S
V28     V17    10.0   1_565     S
V28     V22    10.0   1_556     S
V28     V48    10.0   .     S
V29     V24    10.0   1_445     S
V29     V26    10.0   1_544     S
V29     V19    10.0   1_454     S
V30     V23    10.0   1_455     S
V30     V25    10.0   1_554     S
V30     V20    10.0   1_454     S
V31     V22    10.0   1_545     S
V31     V28    10.0   1_544     S
V31     V17    10.0   1_554     S
V32     V27    10.0   1_554     S
V32     V18    10.0   1_554     S
V33     V40    10.0   1_445     S
V33     V43    10.0   1_455     S
V33     V46    10.0   1_545     S
V33     V37    10.0   .     S
V34     V39    10.0   1_455     S
V34     V44    10.0   1_455     S
V34     V45    10.0   .     S
V34     V38    10.0   .     S
V35     V38    10.0   1_545     S
V35     V41    10.0   .     S
V35     V48    10.0   1_545     S
V35     V39    10.0   .     S
V36     V37    10.0   .     S
V36     V42    10.0   .     S
V36     V47    10.0   .     S
V36     V40    10.0   .     S
V37     V47    10.0   .     S
V37     V42    10.0   .     S
V38     V48    10.0   .     S
V38     V35    10.0   1_565     S
V38     V41    10.0   1_565     S
V39     V45    10.0   1_655     S
V39     V34    10.0   1_655     S
V39     V44    10.0   .     S
V40     V46    10.0   1_655     S
V40     V33    10.0   1_665     S
V40     V43    10.0   1_565     S
V41     V48    10.0   1_545     S
V41     V38    10.0   1_545     S
V41     V46    10.0   1_545     S
V42     V47    10.0   .     S
V42     V45    10.0   .     S
V43     V33    10.0   1_655     S
V43     V46    10.0   1_645     S
V43     V40    10.0   1_545     S
V43     V48    10.0   1_545     S
V44     V34    10.0   1_655     S
V44     V45    10.0   1_655     S
V44     V47    10.0   .     S
V45     V39    10.0   1_455     S
V45     V44    10.0   1_455     S
V46     V40    10.0   1_455     S
V46     V43    10.0   1_465     S
V46     V33    10.0   1_565     S
V46     V41    10.0   1_565     S
V48     V41    10.0   1_565     S
V48     V35    10.0   1_565     S
V48     V43    10.0   1_565     S
