data_wjs
_audit_creation_date              2019-12-31
_audit_creation_method            'Pymatgen'
_symmetry_space_group_name_H-M    'P1'
_symmetry_Int_Tables_number       1
loop_
_symmetry_equiv_pos_as_xyz
  x,y,z
_cell_length_a                    35.6758
_cell_length_b                    35.6758
_cell_length_c                    48.1268
_cell_angle_alpha                 90.0
_cell_angle_beta                 90.0
_cell_angle_gamma                 120.0
loop_
_atom_site_label
_atom_site_type_symbol
_atom_site_fract_x
_atom_site_fract_y
_atom_site_fract_z
V1     V     0.3186   0.3516   0.8169
V2     V     0.3186   0.8516   0.8169
V3     V     0.8186   0.3516   0.8169
V4     V     0.8186   0.8516   0.8169
V5     V     0.1814   0.033   0.8498
V6     V     0.1814   0.533   0.8498
V7     V     0.6814   0.033   0.8498
V8     V     0.6814   0.533   0.8498
V9     V     0.3516   0.033   0.6502
V10     V     0.3516   0.533   0.6502
V11     V     0.8516   0.033   0.6502
V12     V     0.8516   0.533   0.6502
V13     V     0.033   0.3516   0.6831
V14     V     0.033   0.8516   0.6831
V15     V     0.533   0.3516   0.6831
V16     V     0.533   0.8516   0.6831
V17     V     0.467   0.3186   0.9836
V18     V     0.467   0.8186   0.9836
V19     V     0.967   0.3186   0.9836
V20     V     0.967   0.8186   0.9836
V21     V     0.1484   0.1814   0.0164
V22     V     0.1484   0.6814   0.0164
V23     V     0.6484   0.1814   0.0164
V24     V     0.6484   0.6814   0.0164
V25     V     0.033   0.1814   0.4836
V26     V     0.033   0.6814   0.4836
V27     V     0.533   0.1814   0.4836
V28     V     0.533   0.6814   0.4836
V29     V     0.3516   0.3186   0.5164
V30     V     0.3516   0.8186   0.5164
V31     V     0.8516   0.3186   0.5164
V32     V     0.8516   0.8186   0.5164
V33     V     0.1814   0.1484   0.3169
V34     V     0.1814   0.6484   0.3169
V35     V     0.6814   0.1484   0.3169
V36     V     0.6814   0.6484   0.3169
V37     V     0.3186   0.467   0.3498
V38     V     0.3186   0.967   0.3498
V39     V     0.8186   0.467   0.3498
V40     V     0.8186   0.967   0.3498
V41     V     0.1484   0.467   0.1502
V42     V     0.1484   0.967   0.1502
V43     V     0.6484   0.467   0.1502
V44     V     0.6484   0.967   0.1502
V45     V     0.467   0.1484   0.1831
V46     V     0.467   0.6484   0.1831
V47     V     0.967   0.1484   0.1831
V48     V     0.967   0.6484   0.1831
loop_
_geom_bond_atom_site_label_1
_geom_bond_atom_site_label_2
_geom_bond_distance
_geom_bond_site_symmetry_2
_ccdc_geom_bond_type
V1     V17    10.0   .     S
V1     V6    10.0   .     S
V1     V5    10.0   .     S
V1     V10    10.0   .     S
V1     V15    10.0   .     S
V2     V18    10.0   .     S
V2     V5    10.0   1_565     S
V2     V6    10.0   .     S
V2     V9    10.0   1_565     S
V2     V16    10.0   .     S
V3     V19    10.0   .     S
V3     V8    10.0   .     S
V3     V7    10.0   .     S
V3     V12    10.0   .     S
V3     V13    10.0   1_655     S
V4     V20    10.0   .     S
V4     V7    10.0   1_565     S
V4     V8    10.0   .     S
V4     V11    10.0   1_565     S
V4     V14    10.0   1_655     S
V5     V2    10.0   1_545     S
V5     V14    10.0   1_545     S
V5     V20    10.0   1_445     S
V5     V21    10.0   1_556     S
V6     V13    10.0   .     S
V6     V19    10.0   1_455     S
V6     V22    10.0   1_556     S
V7     V4    10.0   1_545     S
V7     V16    10.0   1_545     S
V7     V18    10.0   1_545     S
V7     V23    10.0   1_556     S
V8     V15    10.0   .     S
V8     V17    10.0   .     S
V8     V24    10.0   1_556     S
V9     V2    10.0   1_545     S
V9     V15    10.0   .     S
V9     V14    10.0   1_545     S
V9     V27    10.0   .     S
V9     V30    10.0   1_545     S
V10     V16    10.0   .     S
V10     V13    10.0   .     S
V10     V28    10.0   .     S
V10     V29    10.0   .     S
V11     V4    10.0   1_545     S
V11     V13    10.0   1_655     S
V11     V16    10.0   1_545     S
V11     V25    10.0   1_655     S
V11     V32    10.0   1_545     S
V12     V14    10.0   1_655     S
V12     V15    10.0   .     S
V12     V26    10.0   1_655     S
V12     V31    10.0   .     S
V13     V11    10.0   1_455     S
V13     V31    10.0   1_455     S
V13     V3    10.0   1_455     S
V14     V5    10.0   1_565     S
V14     V12    10.0   1_455     S
V14     V32    10.0   1_455     S
V14     V9    10.0   1_565     S
V14     V4    10.0   1_455     S
V15     V29    10.0   .     S
V16     V7    10.0   1_565     S
V16     V30    10.0   .     S
V16     V11    10.0   1_565     S
V17     V43    10.0   1_556     S
V17     V21    10.0   1_556     S
V17     V23    10.0   1_556     S
V18     V7    10.0   1_565     S
V18     V44    10.0   1_556     S
V18     V22    10.0   1_556     S
V18     V24    10.0   1_556     S
V19     V6    10.0   1_655     S
V19     V41    10.0   1_656     S
V19     V23    10.0   1_556     S
V19     V21    10.0   1_656     S
V20     V5    10.0   1_665     S
V20     V42    10.0   1_656     S
V20     V24    10.0   1_556     S
V20     V22    10.0   1_656     S
V21     V17    10.0   1_554     S
V21     V5    10.0   1_554     S
V21     V19    10.0   1_454     S
V21     V42    10.0   1_545     S
V21     V47    10.0   1_455     S
V22     V18    10.0   1_554     S
V22     V6    10.0   1_554     S
V22     V20    10.0   1_454     S
V22     V41    10.0   .     S
V22     V48    10.0   1_455     S
V23     V19    10.0   1_554     S
V23     V7    10.0   1_554     S
V23     V17    10.0   1_554     S
V23     V44    10.0   1_545     S
V23     V45    10.0   .     S
V24     V20    10.0   1_554     S
V24     V8    10.0   1_554     S
V24     V18    10.0   1_554     S
V24     V43    10.0   .     S
V24     V46    10.0   .     S
V25     V11    10.0   1_455     S
V25     V29    10.0   .     S
V25     V31    10.0   1_455     S
V25     V33    10.0   .     S
V25     V40    10.0   1_445     S
V26     V12    10.0   1_455     S
V26     V30    10.0   .     S
V26     V32    10.0   1_455     S
V26     V34    10.0   .     S
V26     V39    10.0   1_455     S
V27     V31    10.0   .     S
V27     V29    10.0   .     S
V27     V35    10.0   .     S
V27     V38    10.0   1_545     S
V28     V32    10.0   .     S
V28     V30    10.0   .     S
V28     V36    10.0   .     S
V28     V37    10.0   .     S
V29     V37    10.0   .     S
V30     V38    10.0   .     S
V30     V9    10.0   1_565     S
V31     V13    10.0   1_655     S
V31     V39    10.0   .     S
V31     V25    10.0   1_655     S
V32     V14    10.0   1_655     S
V32     V40    10.0   .     S
V32     V26    10.0   1_655     S
V32     V11    10.0   1_565     S
V33     V38    10.0   1_545     S
V33     V37    10.0   .     S
V33     V42    10.0   1_545     S
V33     V47    10.0   1_455     S
V34     V37    10.0   .     S
V34     V38    10.0   .     S
V34     V41    10.0   .     S
V34     V48    10.0   1_455     S
V35     V40    10.0   1_545     S
V35     V39    10.0   .     S
V35     V44    10.0   1_545     S
V35     V45    10.0   .     S
V36     V39    10.0   .     S
V36     V40    10.0   .     S
V36     V43    10.0   .     S
V36     V46    10.0   .     S
V37     V46    10.0   .     S
V38     V33    10.0   1_565     S
V38     V45    10.0   1_565     S
V38     V27    10.0   1_565     S
V39     V48    10.0   .     S
V39     V26    10.0   1_655     S
V40     V35    10.0   1_565     S
V40     V47    10.0   1_565     S
V40     V25    10.0   1_665     S
V41     V19    10.0   1_454     S
V41     V47    10.0   1_455     S
V41     V46    10.0   .     S
V42     V20    10.0   1_454     S
V42     V21    10.0   1_565     S
V42     V33    10.0   1_565     S
V42     V48    10.0   1_455     S
V42     V45    10.0   1_565     S
V43     V17    10.0   1_554     S
V43     V45    10.0   .     S
V43     V48    10.0   .     S
V44     V18    10.0   1_554     S
V44     V23    10.0   1_565     S
V44     V35    10.0   1_565     S
V44     V46    10.0   .     S
V44     V47    10.0   1_565     S
V45     V38    10.0   1_545     S
V45     V42    10.0   1_545     S
V47     V40    10.0   1_545     S
V47     V41    10.0   1_655     S
V47     V21    10.0   1_655     S
V47     V44    10.0   1_545     S
V47     V33    10.0   1_655     S
V48     V42    10.0   1_655     S
V48     V22    10.0   1_655     S
V48     V34    10.0   1_655     S
