data_wjt
_audit_creation_date              2019-12-31
_audit_creation_method            'Pymatgen'
_symmetry_space_group_name_H-M    'P1'
_symmetry_Int_Tables_number       1
loop_
_symmetry_equiv_pos_as_xyz
  x,y,z
_cell_length_a                    44.6737
_cell_length_b                    44.6737
_cell_length_c                    30.0
_cell_angle_alpha                 90.0
_cell_angle_beta                 90.0
_cell_angle_gamma                 120.0
loop_
_atom_site_label
_atom_site_type_symbol
_atom_site_fract_x
_atom_site_fract_y
_atom_site_fract_z
V1     V     0.3308   0.4547   0.0634
V2     V     0.3308   0.4547   0.3967
V3     V     0.3308   0.4547   0.73
V4     V     0.1238   0.4547   0.27
V5     V     0.1238   0.4547   0.6033
V6     V     0.1238   0.4547   0.9366
V7     V     0.5453   0.6692   0.1588
V8     V     0.5453   0.6692   0.4922
V9     V     0.5453   0.6692   0.8255
V10     V     0.5453   0.8762   0.2856
V11     V     0.5453   0.8762   0.6189
V12     V     0.5453   0.8762   0.9523
V13     V     0.3308   0.8762   0.0477
V14     V     0.3308   0.8762   0.3811
V15     V     0.3308   0.8762   0.7144
V16     V     0.1238   0.6692   0.1745
V17     V     0.1238   0.6692   0.5078
V18     V     0.1238   0.6692   0.8412
V19     V     0.6692   0.5453   0.0634
V20     V     0.6692   0.5453   0.3967
V21     V     0.6692   0.5453   0.73
V22     V     0.8762   0.5453   0.27
V23     V     0.8762   0.5453   0.6033
V24     V     0.8762   0.5453   0.9366
V25     V     0.6692   0.1238   0.0477
V26     V     0.6692   0.1238   0.3811
V27     V     0.6692   0.1238   0.7144
V28     V     0.8762   0.3308   0.1745
V29     V     0.8762   0.3308   0.5078
V30     V     0.8762   0.3308   0.8412
V31     V     0.4547   0.1238   0.2856
V32     V     0.4547   0.1238   0.6189
V33     V     0.4547   0.1238   0.9523
V34     V     0.4547   0.3308   0.1588
V35     V     0.4547   0.3308   0.4922
V36     V     0.4547   0.3308   0.8255
loop_
_geom_bond_atom_site_label_1
_geom_bond_atom_site_label_2
_geom_bond_distance
_geom_bond_site_symmetry_2
_ccdc_geom_bond_type
V1     V6    10.0   1_554     S
V1     V2    10.0   .     S
V1     V3    10.0   1_554     S
V1     V7    10.0   .     S
V1     V34    10.001   .     S
V2     V4    10.0   .     S
V2     V3    10.0   .     S
V2     V8    10.0   .     S
V2     V35    10.001   .     S
V3     V5    10.0   .     S
V3     V1    10.0   1_556     S
V3     V9    10.0   .     S
V3     V36    10.001   .     S
V4     V6    10.0   1_554     S
V4     V5    10.0   .     S
V4     V16    10.0   .     S
V4     V28    10.001   1_455     S
V5     V6    10.0   .     S
V5     V17    10.0   .     S
V5     V29    10.001   1_455     S
V6     V1    10.0   1_556     S
V6     V4    10.0   1_556     S
V6     V18    10.0   .     S
V6     V30    10.001   1_455     S
V7     V10    10.0   .     S
V7     V8    10.0   .     S
V7     V9    10.0   1_554     S
V7     V19    10.001   .     S
V8     V11    10.0   .     S
V8     V9    10.0   .     S
V8     V20    10.001   .     S
V9     V12    10.0   .     S
V9     V7    10.0   1_556     S
V9     V21    10.001   .     S
V10     V12    10.0   1_554     S
V10     V11    10.0   .     S
V10     V14    10.0   .     S
V10     V26    10.001   1_565     S
V11     V12    10.0   .     S
V11     V15    10.0   .     S
V11     V27    10.001   1_565     S
V12     V10    10.0   1_556     S
V12     V13    10.0   1_556     S
V12     V25    10.001   1_566     S
V13     V12    10.0   1_554     S
V13     V16    10.0   .     S
V13     V14    10.0   .     S
V13     V15    10.0   1_554     S
V13     V33    10.001   1_564     S
V14     V17    10.0   .     S
V14     V15    10.0   .     S
V14     V31    10.001   1_565     S
V15     V18    10.0   .     S
V15     V13    10.0   1_556     S
V15     V32    10.001   1_565     S
V16     V18    10.0   1_554     S
V16     V17    10.0   .     S
V16     V22    10.001   1_455     S
V17     V18    10.0   .     S
V17     V23    10.001   1_455     S
V18     V16    10.0   1_556     S
V18     V24    10.001   1_455     S
V19     V24    10.0   1_554     S
V19     V20    10.0   .     S
V19     V21    10.0   1_554     S
V19     V34    10.0   .     S
V20     V22    10.0   .     S
V20     V21    10.0   .     S
V20     V35    10.0   .     S
V21     V23    10.0   .     S
V21     V19    10.0   1_556     S
V21     V36    10.0   .     S
V22     V16    10.001   1_655     S
V22     V24    10.0   1_554     S
V22     V23    10.0   .     S
V22     V28    10.0   .     S
V23     V17    10.001   1_655     S
V23     V24    10.0   .     S
V23     V29    10.0   .     S
V24     V18    10.001   1_655     S
V24     V19    10.0   1_556     S
V24     V22    10.0   1_556     S
V24     V30    10.0   .     S
V25     V12    10.001   1_544     S
V25     V28    10.0   .     S
V25     V26    10.0   .     S
V25     V27    10.0   1_554     S
V25     V33    10.0   1_554     S
V26     V10    10.001   1_545     S
V26     V29    10.0   .     S
V26     V27    10.0   .     S
V26     V31    10.0   .     S
V27     V11    10.001   1_545     S
V27     V30    10.0   .     S
V27     V25    10.0   1_556     S
V27     V32    10.0   .     S
V28     V30    10.0   1_554     S
V28     V29    10.0   .     S
V28     V4    10.001   1_655     S
V29     V30    10.0   .     S
V29     V5    10.001   1_655     S
V30     V28    10.0   1_556     S
V30     V6    10.001   1_655     S
V31     V14    10.001   1_545     S
V31     V34    10.0   .     S
V31     V33    10.0   1_554     S
V31     V32    10.0   .     S
V32     V15    10.001   1_545     S
V32     V35    10.0   .     S
V32     V33    10.0   .     S
V33     V13    10.001   1_546     S
V33     V25    10.0   1_556     S
V33     V36    10.0   .     S
V33     V31    10.0   1_556     S
V34     V35    10.0   .     S
V34     V36    10.0   1_554     S
V35     V36    10.0   .     S
V36     V34    10.0   1_556     S
