data_wju
_audit_creation_date              2019-12-31
_audit_creation_method            'Pymatgen'
_symmetry_space_group_name_H-M    'P1'
_symmetry_Int_Tables_number       1
loop_
_symmetry_equiv_pos_as_xyz
  x,y,z
_cell_length_a                    34.6412
_cell_length_b                    34.6412
_cell_length_c                    55.9804
_cell_angle_alpha                 90.0
_cell_angle_beta                 90.0
_cell_angle_gamma                 120.0
loop_
_atom_site_label
_atom_site_type_symbol
_atom_site_fract_x
_atom_site_fract_y
_atom_site_fract_z
V1     V     0.4167   0.0833   0.9226
V2     V     0.4167   0.5833   0.9226
V3     V     0.9167   0.0833   0.9226
V4     V     0.9167   0.5833   0.9226
V5     V     0.4167   0.0833   0.744
V6     V     0.4167   0.5833   0.744
V7     V     0.9167   0.0833   0.744
V8     V     0.9167   0.5833   0.744
V9     V     0.0833   0.4167   0.744
V10     V     0.0833   0.9167   0.744
V11     V     0.5833   0.4167   0.744
V12     V     0.5833   0.9167   0.744
V13     V     0.0833   0.4167   0.9226
V14     V     0.0833   0.9167   0.9226
V15     V     0.5833   0.4167   0.9226
V16     V     0.5833   0.9167   0.9226
V17     V     0.4167   0.3333   0.4107
V18     V     0.4167   0.8333   0.4107
V19     V     0.9167   0.3333   0.4107
V20     V     0.9167   0.8333   0.4107
V21     V     0.4167   0.3333   0.5893
V22     V     0.4167   0.8333   0.5893
V23     V     0.9167   0.3333   0.5893
V24     V     0.9167   0.8333   0.5893
V25     V     0.0833   0.1667   0.4107
V26     V     0.0833   0.6667   0.4107
V27     V     0.5833   0.1667   0.4107
V28     V     0.5833   0.6667   0.4107
V29     V     0.0833   0.1667   0.5893
V30     V     0.0833   0.6667   0.5893
V31     V     0.5833   0.1667   0.5893
V32     V     0.5833   0.6667   0.5893
V33     V     0.3333   0.4167   0.0774
V34     V     0.3333   0.9167   0.0774
V35     V     0.8333   0.4167   0.0774
V36     V     0.8333   0.9167   0.0774
V37     V     0.3333   0.4167   0.256
V38     V     0.3333   0.9167   0.256
V39     V     0.8333   0.4167   0.256
V40     V     0.8333   0.9167   0.256
V41     V     0.1667   0.0833   0.0774
V42     V     0.1667   0.5833   0.0774
V43     V     0.6667   0.0833   0.0774
V44     V     0.6667   0.5833   0.0774
V45     V     0.1667   0.0833   0.256
V46     V     0.1667   0.5833   0.256
V47     V     0.6667   0.0833   0.256
V48     V     0.6667   0.5833   0.256
loop_
_geom_bond_atom_site_label_1
_geom_bond_atom_site_label_2
_geom_bond_distance
_geom_bond_site_symmetry_2
_ccdc_geom_bond_type
V1     V5    10.0   .     S
V1     V16    10.0   1_545     S
V1     V15    10.0   .     S
V1     V34    10.0   1_546     S
V1     V14    10.0   1_545     S
V2     V6    10.0   .     S
V2     V15    10.0   .     S
V2     V16    10.0   .     S
V2     V33    10.0   1_556     S
V2     V13    10.0   .     S
V3     V7    10.0   .     S
V3     V14    10.0   1_645     S
V3     V13    10.0   1_655     S
V3     V36    10.0   1_546     S
V3     V16    10.0   1_545     S
V4     V8    10.0   .     S
V4     V13    10.0   1_655     S
V4     V14    10.0   1_655     S
V4     V35    10.0   1_556     S
V4     V15    10.0   .     S
V5     V10    10.0   1_545     S
V5     V12    10.0   1_545     S
V5     V31    10.0   .     S
V5     V11    10.0   .     S
V6     V9    10.0   .     S
V6     V11    10.0   .     S
V6     V32    10.0   .     S
V6     V12    10.0   .     S
V7     V12    10.0   1_545     S
V7     V10    10.0   1_645     S
V7     V29    10.0   1_655     S
V7     V9    10.0   1_655     S
V8     V11    10.0   .     S
V8     V9    10.0   1_655     S
V8     V30    10.0   1_655     S
V8     V10    10.0   1_655     S
V9     V13    10.0   .     S
V9     V8    10.0   1_455     S
V9     V23    10.0   1_455     S
V9     V7    10.0   1_455     S
V10     V14    10.0   .     S
V10     V5    10.0   1_565     S
V10     V7    10.0   1_465     S
V10     V24    10.0   1_455     S
V10     V8    10.0   1_455     S
V11     V15    10.0   .     S
V11     V21    10.0   .     S
V12     V16    10.0   .     S
V12     V7    10.0   1_565     S
V12     V5    10.0   1_565     S
V12     V22    10.0   .     S
V13     V4    10.0   1_455     S
V13     V3    10.0   1_455     S
V13     V42    10.0   1_556     S
V14     V3    10.0   1_465     S
V14     V4    10.0   1_455     S
V14     V41    10.0   1_566     S
V14     V1    10.0   1_565     S
V15     V44    10.0   1_556     S
V16     V1    10.0   1_565     S
V16     V43    10.0   1_566     S
V16     V3    10.0   1_565     S
V17     V21    10.0   .     S
V17     V27    10.0   .     S
V17     V28    10.0   .     S
V17     V37    10.0   .     S
V17     V25    10.0   .     S
V18     V22    10.0   .     S
V18     V28    10.0   .     S
V18     V27    10.0   1_565     S
V18     V38    10.0   .     S
V18     V26    10.0   .     S
V19     V23    10.0   .     S
V19     V25    10.0   1_655     S
V19     V26    10.0   1_655     S
V19     V39    10.0   .     S
V19     V27    10.0   .     S
V20     V24    10.0   .     S
V20     V26    10.0   1_655     S
V20     V25    10.0   1_665     S
V20     V40    10.0   .     S
V20     V28    10.0   .     S
V21     V29    10.0   .     S
V21     V32    10.0   .     S
V21     V31    10.0   .     S
V22     V30    10.0   .     S
V22     V31    10.0   1_565     S
V22     V32    10.0   .     S
V23     V31    10.0   .     S
V23     V30    10.0   1_655     S
V23     V9    10.0   1_655     S
V23     V29    10.0   1_655     S
V24     V32    10.0   .     S
V24     V29    10.0   1_665     S
V24     V10    10.0   1_655     S
V24     V30    10.0   1_655     S
V25     V29    10.0   .     S
V25     V19    10.0   1_455     S
V25     V20    10.0   1_445     S
V25     V45    10.0   .     S
V26     V30    10.0   .     S
V26     V20    10.0   1_455     S
V26     V19    10.0   1_455     S
V26     V46    10.0   .     S
V27     V31    10.0   .     S
V27     V18    10.0   1_545     S
V27     V47    10.0   .     S
V28     V32    10.0   .     S
V28     V48    10.0   .     S
V29     V24    10.0   1_445     S
V29     V7    10.0   1_455     S
V29     V23    10.0   1_455     S
V30     V23    10.0   1_455     S
V30     V8    10.0   1_455     S
V30     V24    10.0   1_455     S
V31     V22    10.0   1_545     S
V33     V37    10.0   .     S
V33     V41    10.0   .     S
V33     V44    10.0   .     S
V33     V2    10.0   1_554     S
V33     V42    10.0   .     S
V34     V38    10.0   .     S
V34     V42    10.0   .     S
V34     V43    10.0   1_565     S
V34     V1    10.0   1_564     S
V34     V41    10.0   1_565     S
V35     V39    10.0   .     S
V35     V43    10.0   .     S
V35     V42    10.0   1_655     S
V35     V4    10.0   1_554     S
V35     V44    10.0   .     S
V36     V40    10.0   .     S
V36     V44    10.0   .     S
V36     V41    10.0   1_665     S
V36     V3    10.0   1_564     S
V36     V43    10.0   1_565     S
V37     V46    10.0   .     S
V37     V48    10.0   .     S
V37     V45    10.0   .     S
V38     V45    10.0   1_565     S
V38     V47    10.0   1_565     S
V38     V46    10.0   .     S
V39     V48    10.0   .     S
V39     V46    10.0   1_655     S
V39     V47    10.0   .     S
V40     V47    10.0   1_565     S
V40     V45    10.0   1_665     S
V40     V48    10.0   .     S
V41     V45    10.0   .     S
V41     V36    10.0   1_445     S
V41     V14    10.0   1_544     S
V41     V34    10.0   1_545     S
V42     V46    10.0   .     S
V42     V35    10.0   1_455     S
V42     V13    10.0   1_554     S
V43     V47    10.0   .     S
V43     V34    10.0   1_545     S
V43     V16    10.0   1_544     S
V43     V36    10.0   1_545     S
V44     V48    10.0   .     S
V44     V15    10.0   1_554     S
V45     V38    10.0   1_545     S
V45     V40    10.0   1_445     S
V46     V39    10.0   1_455     S
V47     V40    10.0   1_545     S
V47     V38    10.0   1_545     S
