data_wjx
_audit_creation_date              2019-12-31
_audit_creation_method            'Pymatgen'
_symmetry_space_group_name_H-M    'P1'
_symmetry_Int_Tables_number       1
loop_
_symmetry_equiv_pos_as_xyz
  x,y,z
_cell_length_a                    46.6738
_cell_length_b                    46.6738
_cell_length_c                    30.0
_cell_angle_alpha                 90.0
_cell_angle_beta                 90.0
_cell_angle_gamma                 120.0
loop_
_atom_site_label
_atom_site_type_symbol
_atom_site_fract_x
_atom_site_fract_y
_atom_site_fract_z
V1     V     0.1225   0.4552   0.0326
V2     V     0.1225   0.4552   0.3659
V3     V     0.1225   0.4552   0.6992
V4     V     0.3326   0.4552   0.3008
V5     V     0.3326   0.4552   0.6341
V6     V     0.3326   0.4552   0.9674
V7     V     0.1225   0.6674   0.0785
V8     V     0.1225   0.6674   0.4119
V9     V     0.1225   0.6674   0.7452
V10     V     0.3326   0.8775   0.1437
V11     V     0.3326   0.8775   0.477
V12     V     0.3326   0.8775   0.8103
V13     V     0.4552   0.3326   0.2548
V14     V     0.4552   0.3326   0.5881
V15     V     0.4552   0.3326   0.9215
V16     V     0.4552   0.1225   0.1897
V17     V     0.4552   0.1225   0.523
V18     V     0.4552   0.1225   0.8563
V19     V     0.6674   0.1225   0.1437
V20     V     0.6674   0.1225   0.477
V21     V     0.6674   0.1225   0.8103
V22     V     0.8775   0.3326   0.0785
V23     V     0.8775   0.3326   0.4119
V24     V     0.8775   0.3326   0.7452
V25     V     0.6674   0.5449   0.3008
V26     V     0.6674   0.5449   0.6341
V27     V     0.6674   0.5449   0.9674
V28     V     0.8775   0.5449   0.0326
V29     V     0.8775   0.5449   0.3659
V30     V     0.8775   0.5449   0.6992
V31     V     0.5449   0.8775   0.1897
V32     V     0.5449   0.8775   0.523
V33     V     0.5449   0.8775   0.8563
V34     V     0.5449   0.6674   0.2548
V35     V     0.5449   0.6674   0.5881
V36     V     0.5449   0.6674   0.9215
loop_
_geom_bond_atom_site_label_1
_geom_bond_atom_site_label_2
_geom_bond_distance
_geom_bond_site_symmetry_2
_ccdc_geom_bond_type
V1     V6    9.999   1_554     S
V1     V2    10.0   .     S
V1     V3    10.0   1_554     S
V1     V22    10.0   1_455     S
V1     V7    10.001   .     S
V2     V4    9.999   .     S
V2     V3    10.0   .     S
V2     V23    10.0   1_455     S
V2     V8    10.001   .     S
V3     V5    9.999   .     S
V3     V1    10.0   1_556     S
V3     V24    10.0   1_455     S
V3     V9    10.001   .     S
V4     V6    10.0   1_554     S
V4     V5    10.0   .     S
V4     V13    10.0   .     S
V4     V34    10.001   .     S
V5     V6    10.0   .     S
V5     V14    10.0   .     S
V5     V35    10.001   .     S
V6     V1    9.999   1_556     S
V6     V4    10.0   1_556     S
V6     V15    10.0   .     S
V6     V36    10.001   .     S
V7     V10    9.999   .     S
V7     V8    10.0   .     S
V7     V9    10.0   1_554     S
V7     V28    10.0   1_455     S
V8     V11    9.999   .     S
V8     V9    10.0   .     S
V8     V29    10.0   1_455     S
V9     V12    9.999   .     S
V9     V7    10.0   1_556     S
V9     V30    10.0   1_455     S
V10     V11    10.0   .     S
V10     V12    10.0   1_554     S
V10     V16    10.0   1_565     S
V10     V31    10.001   .     S
V11     V12    10.0   .     S
V11     V17    10.0   1_565     S
V11     V32    10.001   .     S
V12     V10    10.0   1_556     S
V12     V18    10.0   1_565     S
V12     V33    10.001   .     S
V13     V16    9.999   .     S
V13     V15    10.0   1_554     S
V13     V14    10.0   .     S
V13     V25    10.001   .     S
V14     V17    9.999   .     S
V14     V15    10.0   .     S
V14     V26    10.001   .     S
V15     V18    9.999   .     S
V15     V13    10.0   1_556     S
V15     V27    10.001   .     S
V16     V18    10.0   1_554     S
V16     V17    10.0   .     S
V16     V10    10.0   1_545     S
V16     V19    10.001   .     S
V17     V18    10.0   .     S
V17     V11    10.0   1_545     S
V17     V20    10.001   .     S
V18     V16    10.0   1_556     S
V18     V12    10.0   1_545     S
V18     V21    10.001   .     S
V19     V22    9.999   .     S
V19     V20    10.0   .     S
V19     V21    10.0   1_554     S
V19     V31    10.0   1_545     S
V20     V23    9.999   .     S
V20     V21    10.0   .     S
V20     V32    10.0   1_545     S
V21     V24    9.999   .     S
V21     V19    10.0   1_556     S
V21     V33    10.0   1_545     S
V22     V23    10.0   .     S
V22     V24    10.0   1_554     S
V22     V1    10.0   1_655     S
V22     V28    10.001   .     S
V23     V24    10.0   .     S
V23     V2    10.0   1_655     S
V23     V29    10.001   .     S
V24     V22    10.0   1_556     S
V24     V3    10.0   1_655     S
V24     V30    10.001   .     S
V25     V29    9.999   .     S
V25     V27    10.0   1_554     S
V25     V26    10.0   .     S
V25     V34    10.0   .     S
V26     V30    9.999   .     S
V26     V27    10.0   .     S
V26     V35    10.0   .     S
V27     V28    9.999   1_556     S
V27     V25    10.0   1_556     S
V27     V36    10.0   .     S
V28     V7    10.0   1_655     S
V28     V27    9.999   1_554     S
V28     V29    10.0   .     S
V28     V30    10.0   1_554     S
V29     V8    10.0   1_655     S
V29     V30    10.0   .     S
V30     V9    10.0   1_655     S
V30     V28    10.0   1_556     S
V31     V34    9.999   .     S
V31     V33    10.0   1_554     S
V31     V32    10.0   .     S
V31     V19    10.0   1_565     S
V32     V35    9.999   .     S
V32     V33    10.0   .     S
V32     V20    10.0   1_565     S
V33     V36    9.999   .     S
V33     V31    10.0   1_556     S
V33     V21    10.0   1_565     S
V34     V36    10.0   1_554     S
V34     V35    10.0   .     S
V35     V36    10.0   .     S
V36     V34    10.0   1_556     S
