data_wjy
_audit_creation_date              2019-12-31
_audit_creation_method            'Pymatgen'
_symmetry_space_group_name_H-M    'P1'
_symmetry_Int_Tables_number       1
loop_
_symmetry_equiv_pos_as_xyz
  x,y,z
_cell_length_a                    46.5101
_cell_length_b                    46.5101
_cell_length_c                    30.0
_cell_angle_alpha                 90.0
_cell_angle_beta                 90.0
_cell_angle_gamma                 120.0
loop_
_atom_site_label
_atom_site_type_symbol
_atom_site_fract_x
_atom_site_fract_y
_atom_site_fract_z
V1     V     0.5407   0.8779   0.1964
V2     V     0.5407   0.8779   0.5297
V3     V     0.5407   0.8779   0.8631
V4     V     0.3371   0.8779   0.3036
V5     V     0.3371   0.8779   0.6369
V6     V     0.3371   0.8779   0.9703
V7     V     0.4593   0.1221   0.0297
V8     V     0.4593   0.1221   0.3631
V9     V     0.4593   0.1221   0.6964
V10     V     0.6629   0.1221   0.1369
V11     V     0.6629   0.1221   0.4703
V12     V     0.6629   0.1221   0.8036
V13     V     0.3371   0.4593   0.0853
V14     V     0.3371   0.4593   0.4186
V15     V     0.3371   0.4593   0.752
V16     V     0.5407   0.6629   0.1925
V17     V     0.5407   0.6629   0.5258
V18     V     0.5407   0.6629   0.8591
V19     V     0.6629   0.5407   0.252
V20     V     0.6629   0.5407   0.5853
V21     V     0.6629   0.5407   0.9186
V22     V     0.4593   0.3371   0.0258
V23     V     0.4593   0.3371   0.3591
V24     V     0.4593   0.3371   0.6925
V25     V     0.8779   0.3371   0.1409
V26     V     0.8779   0.3371   0.4742
V27     V     0.8779   0.3371   0.8075
V28     V     0.8779   0.5407   0.248
V29     V     0.8779   0.5407   0.5814
V30     V     0.8779   0.5407   0.9147
V31     V     0.1221   0.4593   0.0814
V32     V     0.1221   0.4593   0.4147
V33     V     0.1221   0.4593   0.748
V34     V     0.1221   0.6629   0.3075
V35     V     0.1221   0.6629   0.6409
V36     V     0.1221   0.6629   0.9742
loop_
_geom_bond_atom_site_label_1
_geom_bond_atom_site_label_2
_geom_bond_distance
_geom_bond_site_symmetry_2
_ccdc_geom_bond_type
V1     V4    10.0   .     S
V1     V10    10.0   1_565     S
V1     V3    10.0   1_554     S
V1     V2    10.0   .     S
V1     V16    10.0   .     S
V2     V5    10.0   .     S
V2     V11    10.0   1_565     S
V2     V3    10.0   .     S
V2     V17    10.0   .     S
V3     V6    10.0   .     S
V3     V12    10.0   1_565     S
V3     V1    10.0   1_556     S
V3     V18    10.0   .     S
V4     V8    10.0   1_565     S
V4     V6    10.0   1_554     S
V4     V5    10.0   .     S
V4     V34    10.0   .     S
V5     V9    10.0   1_565     S
V5     V6    10.0   .     S
V5     V35    10.0   .     S
V6     V7    10.0   1_566     S
V6     V4    10.0   1_556     S
V6     V36    10.0   .     S
V7     V10    10.0   .     S
V7     V6    10.0   1_544     S
V7     V8    10.0   .     S
V7     V9    10.0   1_554     S
V7     V22    10.0   .     S
V8     V11    10.0   .     S
V8     V4    10.0   1_545     S
V8     V9    10.0   .     S
V8     V23    10.0   .     S
V9     V12    10.0   .     S
V9     V5    10.0   1_545     S
V9     V7    10.0   1_556     S
V9     V24    10.0   .     S
V10     V1    10.0   1_545     S
V10     V11    10.0   .     S
V10     V12    10.0   1_554     S
V10     V25    10.0   .     S
V11     V2    10.0   1_545     S
V11     V12    10.0   .     S
V11     V26    10.0   .     S
V12     V3    10.0   1_545     S
V12     V10    10.0   1_556     S
V12     V27    10.0   .     S
V13     V16    10.0   .     S
V13     V22    10.0   .     S
V13     V14    10.0   .     S
V13     V15    10.0   1_554     S
V13     V31    10.0   .     S
V14     V17    10.0   .     S
V14     V23    10.0   .     S
V14     V15    10.0   .     S
V14     V32    10.0   .     S
V15     V18    10.0   .     S
V15     V24    10.0   .     S
V15     V13    10.0   1_556     S
V15     V33    10.0   .     S
V16     V19    10.0   .     S
V16     V18    10.0   1_554     S
V16     V17    10.0   .     S
V17     V20    10.0   .     S
V17     V18    10.0   .     S
V18     V21    10.0   .     S
V18     V16    10.0   1_556     S
V19     V23    10.0   .     S
V19     V21    10.0   1_554     S
V19     V20    10.0   .     S
V19     V28    10.0   .     S
V20     V24    10.0   .     S
V20     V21    10.0   .     S
V20     V29    10.0   .     S
V21     V22    10.0   1_556     S
V21     V19    10.0   1_556     S
V21     V30    10.0   .     S
V22     V21    10.0   1_554     S
V22     V23    10.0   .     S
V22     V24    10.0   1_554     S
V23     V24    10.0   .     S
V24     V22    10.0   1_556     S
V25     V28    10.0   .     S
V25     V31    10.0   1_655     S
V25     V26    10.0   .     S
V25     V27    10.0   1_554     S
V26     V29    10.0   .     S
V26     V32    10.0   1_655     S
V26     V27    10.0   .     S
V27     V30    10.0   .     S
V27     V33    10.0   1_655     S
V27     V25    10.0   1_556     S
V28     V34    10.0   1_655     S
V28     V30    10.0   1_554     S
V28     V29    10.0   .     S
V29     V35    10.0   1_655     S
V29     V30    10.0   .     S
V30     V36    10.0   1_655     S
V30     V28    10.0   1_556     S
V31     V36    10.0   1_554     S
V31     V25    10.0   1_455     S
V31     V32    10.0   .     S
V31     V33    10.0   1_554     S
V32     V34    10.0   .     S
V32     V26    10.0   1_455     S
V32     V33    10.0   .     S
V33     V35    10.0   .     S
V33     V27    10.0   1_455     S
V33     V31    10.0   1_556     S
V34     V28    10.0   1_455     S
V34     V36    10.0   1_554     S
V34     V35    10.0   .     S
V35     V29    10.0   1_455     S
V35     V36    10.0   .     S
V36     V31    10.0   1_556     S
V36     V30    10.0   1_455     S
V36     V34    10.0   1_556     S
