data_wka
_audit_creation_date              2019-12-31
_audit_creation_method            'Pymatgen'
_symmetry_space_group_name_H-M    'P1'
_symmetry_Int_Tables_number       1
loop_
_symmetry_equiv_pos_as_xyz
  x,y,z
_cell_length_a                    43.9257
_cell_length_b                    43.9257
_cell_length_c                    30.0
_cell_angle_alpha                 90.0
_cell_angle_beta                 90.0
_cell_angle_gamma                 120.0
loop_
_atom_site_label
_atom_site_type_symbol
_atom_site_fract_x
_atom_site_fract_y
_atom_site_fract_z
V1     V     0.3275   0.4452   0.1483
V2     V     0.3275   0.4452   0.4816
V3     V     0.3275   0.4452   0.8149
V4     V     0.5548   0.6725   0.1295
V5     V     0.5548   0.6725   0.4628
V6     V     0.5548   0.6725   0.7962
V7     V     0.6725   0.1178   0.0739
V8     V     0.6725   0.1178   0.4073
V9     V     0.6725   0.1178   0.7406
V10     V     0.4452   0.1178   0.0927
V11     V     0.4452   0.1178   0.4261
V12     V     0.4452   0.1178   0.7594
V13     V     0.6725   0.5548   0.3149
V14     V     0.6725   0.5548   0.6483
V15     V     0.6725   0.5548   0.9816
V16     V     0.4452   0.3275   0.2962
V17     V     0.4452   0.3275   0.6295
V18     V     0.4452   0.3275   0.9628
V19     V     0.8822   0.3275   0.2038
V20     V     0.8822   0.3275   0.5372
V21     V     0.8822   0.3275   0.8705
V22     V     0.8822   0.5548   0.1851
V23     V     0.8822   0.5548   0.5184
V24     V     0.8822   0.5548   0.8517
V25     V     0.1178   0.4452   0.0184
V26     V     0.1178   0.4452   0.3517
V27     V     0.1178   0.4452   0.6851
V28     V     0.1178   0.6725   0.0372
V29     V     0.1178   0.6725   0.3705
V30     V     0.1178   0.6725   0.7038
V31     V     0.3275   0.8822   0.2406
V32     V     0.3275   0.8822   0.5739
V33     V     0.3275   0.8822   0.9073
V34     V     0.5548   0.8822   0.2594
V35     V     0.5548   0.8822   0.5927
V36     V     0.5548   0.8822   0.9261
loop_
_geom_bond_atom_site_label_1
_geom_bond_atom_site_label_2
_geom_bond_distance
_geom_bond_site_symmetry_2
_ccdc_geom_bond_type
V1     V4    10.0   .     S
V1     V16    10.0   .     S
V1     V25    10.0   .     S
V1     V2    10.0   .     S
V1     V3    10.0   1_554     S
V2     V5    10.0   .     S
V2     V17    10.0   .     S
V2     V26    10.0   .     S
V2     V3    10.0   .     S
V3     V6    10.0   .     S
V3     V18    10.0   .     S
V3     V27    10.0   .     S
V3     V1    10.0   1_556     S
V4     V34    10.0   .     S
V4     V15    10.0   1_554     S
V4     V5    10.0   .     S
V4     V6    10.0   1_554     S
V5     V35    10.0   .     S
V5     V13    10.0   .     S
V5     V6    10.0   .     S
V6     V36    10.0   .     S
V6     V14    10.0   .     S
V6     V4    10.0   1_556     S
V7     V10    10.0   .     S
V7     V19    10.0   .     S
V7     V36    10.0   1_544     S
V7     V8    10.0   .     S
V7     V9    10.0   1_554     S
V8     V11    10.0   .     S
V8     V20    10.0   .     S
V8     V34    10.0   1_545     S
V8     V9    10.0   .     S
V9     V12    10.0   .     S
V9     V21    10.0   .     S
V9     V35    10.0   1_545     S
V9     V7    10.0   1_556     S
V10     V18    10.0   1_554     S
V10     V31    10.0   1_545     S
V10     V11    10.0   .     S
V10     V12    10.0   1_554     S
V11     V16    10.0   .     S
V11     V32    10.0   1_545     S
V11     V12    10.0   .     S
V12     V17    10.0   .     S
V12     V33    10.0   1_545     S
V12     V10    10.0   1_556     S
V13     V16    10.0   .     S
V13     V22    10.0   .     S
V13     V15    10.0   1_554     S
V13     V14    10.0   .     S
V14     V17    10.0   .     S
V14     V23    10.0   .     S
V14     V15    10.0   .     S
V15     V18    10.0   .     S
V15     V24    10.0   .     S
V15     V4    10.0   1_556     S
V15     V13    10.0   1_556     S
V16     V18    10.0   1_554     S
V16     V17    10.0   .     S
V17     V18    10.0   .     S
V18     V10    10.0   1_556     S
V18     V16    10.0   1_556     S
V19     V22    10.0   .     S
V19     V26    10.0   1_655     S
V19     V21    10.0   1_554     S
V19     V20    10.0   .     S
V20     V23    10.0   .     S
V20     V27    10.0   1_655     S
V20     V21    10.0   .     S
V21     V24    10.0   .     S
V21     V25    10.0   1_656     S
V21     V19    10.0   1_556     S
V22     V28    10.0   1_655     S
V22     V24    10.0   1_554     S
V22     V23    10.0   .     S
V23     V29    10.0   1_655     S
V23     V24    10.0   .     S
V24     V30    10.0   1_655     S
V24     V22    10.0   1_556     S
V25     V21    10.0   1_454     S
V25     V28    10.0   .     S
V25     V26    10.0   .     S
V25     V27    10.0   1_554     S
V26     V19    10.0   1_455     S
V26     V29    10.0   .     S
V26     V27    10.0   .     S
V27     V20    10.0   1_455     S
V27     V30    10.0   .     S
V27     V25    10.0   1_556     S
V28     V33    10.0   1_554     S
V28     V22    10.0   1_455     S
V28     V29    10.0   .     S
V28     V30    10.0   1_554     S
V29     V31    10.0   .     S
V29     V23    10.0   1_455     S
V29     V30    10.0   .     S
V30     V32    10.0   .     S
V30     V24    10.0   1_455     S
V30     V28    10.0   1_556     S
V31     V34    10.0   .     S
V31     V10    10.0   1_565     S
V31     V33    10.0   1_554     S
V31     V32    10.0   .     S
V32     V35    10.0   .     S
V32     V11    10.0   1_565     S
V32     V33    10.0   .     S
V33     V28    10.0   1_556     S
V33     V36    10.0   .     S
V33     V12    10.0   1_565     S
V33     V31    10.0   1_556     S
V34     V8    10.0   1_565     S
V34     V36    10.0   1_554     S
V34     V35    10.0   .     S
V35     V9    10.0   1_565     S
V35     V36    10.0   .     S
V36     V7    10.0   1_566     S
V36     V34    10.0   1_556     S
