data_wkf
_audit_creation_date              2019-12-31
_audit_creation_method            'Pymatgen'
_symmetry_space_group_name_H-M    'P1'
_symmetry_Int_Tables_number       1
loop_
_symmetry_equiv_pos_as_xyz
  x,y,z
_cell_length_a                    34.9972
_cell_length_b                    34.9972
_cell_length_c                    48.4204
_cell_angle_alpha                 90.0
_cell_angle_beta                 90.0
_cell_angle_gamma                 120.0
loop_
_atom_site_label
_atom_site_type_symbol
_atom_site_fract_x
_atom_site_fract_y
_atom_site_fract_z
V1     V     0.0596   0.1904   0.9667
V2     V     0.0596   0.6904   0.9667
V3     V     0.5596   0.1904   0.9667
V4     V     0.5596   0.6904   0.9667
V5     V     0.3096   0.4404   0.8667
V6     V     0.3096   0.9404   0.8667
V7     V     0.8096   0.4404   0.8667
V8     V     0.8096   0.9404   0.8667
V9     V     0.3096   0.3691   0.3
V10     V     0.3096   0.8691   0.3
V11     V     0.8096   0.3691   0.3
V12     V     0.8096   0.8691   0.3
V13     V     0.0596   0.3691   0.2
V14     V     0.0596   0.8691   0.2
V15     V     0.5596   0.3691   0.2
V16     V     0.5596   0.8691   0.2
V17     V     0.3691   0.0596   0.1333
V18     V     0.3691   0.5596   0.1333
V19     V     0.8691   0.0596   0.1333
V20     V     0.8691   0.5596   0.1333
V21     V     0.3691   0.3096   0.0333
V22     V     0.3691   0.8096   0.0333
V23     V     0.8691   0.3096   0.0333
V24     V     0.8691   0.8096   0.0333
V25     V     0.1904   0.1309   0.8
V26     V     0.1904   0.6309   0.8
V27     V     0.6904   0.1309   0.8
V28     V     0.6904   0.6309   0.8
V29     V     0.4404   0.1309   0.7
V30     V     0.4404   0.6309   0.7
V31     V     0.9404   0.1309   0.7
V32     V     0.9404   0.6309   0.7
V33     V     0.4404   0.3096   0.4667
V34     V     0.4404   0.8096   0.4667
V35     V     0.9404   0.3096   0.4667
V36     V     0.9404   0.8096   0.4667
V37     V     0.1904   0.0596   0.3667
V38     V     0.1904   0.5596   0.3667
V39     V     0.6904   0.0596   0.3667
V40     V     0.6904   0.5596   0.3667
V41     V     0.1309   0.4404   0.6333
V42     V     0.1309   0.9404   0.6333
V43     V     0.6309   0.4404   0.6333
V44     V     0.6309   0.9404   0.6333
V45     V     0.1309   0.1904   0.5333
V46     V     0.1309   0.6904   0.5333
V47     V     0.6309   0.1904   0.5333
V48     V     0.6309   0.6904   0.5333
loop_
_geom_bond_atom_site_label_1
_geom_bond_atom_site_label_2
_geom_bond_distance
_geom_bond_site_symmetry_2
_ccdc_geom_bond_type
V1     V21    10.0   1_556     S
V1     V5    10.0   .     S
V1     V25    10.0   .     S
V1     V23    10.0   1_456     S
V1     V19    10.0   1_456     S
V1     V8    10.0   1_445     S
V2     V22    10.0   1_556     S
V2     V6    10.0   .     S
V2     V26    10.0   .     S
V2     V24    10.0   1_456     S
V2     V20    10.0   1_456     S
V2     V7    10.0   1_455     S
V3     V23    10.0   1_556     S
V3     V7    10.0   .     S
V3     V27    10.0   .     S
V3     V21    10.0   1_556     S
V3     V17    10.0   1_556     S
V3     V6    10.0   1_545     S
V4     V24    10.0   1_556     S
V4     V8    10.0   .     S
V4     V28    10.0   .     S
V4     V22    10.0   1_556     S
V4     V18    10.0   1_556     S
V4     V5    10.0   .     S
V5     V21    10.0   1_556     S
V5     V25    10.0   .     S
V5     V26    10.0   .     S
V5     V30    10.0   .     S
V6     V22    10.0   1_556     S
V6     V26    10.0   .     S
V6     V25    10.0   1_565     S
V6     V29    10.0   1_565     S
V6     V3    10.0   1_565     S
V7     V23    10.0   1_556     S
V7     V27    10.0   .     S
V7     V28    10.0   .     S
V7     V32    10.0   .     S
V7     V2    10.0   1_655     S
V8     V24    10.0   1_556     S
V8     V28    10.0   .     S
V8     V27    10.0   1_565     S
V8     V31    10.0   1_565     S
V8     V1    10.0   1_665     S
V9     V38    10.0   .     S
V9     V13    10.0   .     S
V9     V18    10.0   .     S
V9     V37    10.0   .     S
V9     V33    10.0   .     S
V9     V15    10.0   .     S
V10     V37    10.0   1_565     S
V10     V14    10.0   .     S
V10     V17    10.0   1_565     S
V10     V38    10.0   .     S
V10     V34    10.0   .     S
V10     V16    10.0   .     S
V11     V40    10.0   .     S
V11     V15    10.0   .     S
V11     V20    10.0   .     S
V11     V39    10.0   .     S
V11     V35    10.0   .     S
V11     V13    10.0   1_655     S
V12     V39    10.0   1_565     S
V12     V16    10.0   .     S
V12     V19    10.0   1_565     S
V12     V40    10.0   .     S
V12     V36    10.0   .     S
V12     V14    10.0   1_655     S
V13     V38    10.0   .     S
V13     V18    10.0   .     S
V13     V19    10.0   1_455     S
V13     V23    10.0   1_455     S
V13     V11    10.0   1_455     S
V14     V37    10.0   1_565     S
V14     V17    10.0   1_565     S
V14     V20    10.0   1_455     S
V14     V24    10.0   1_455     S
V14     V12    10.0   1_455     S
V15     V40    10.0   .     S
V15     V20    10.0   .     S
V15     V17    10.0   .     S
V15     V21    10.0   .     S
V16     V39    10.0   1_565     S
V16     V19    10.0   1_565     S
V16     V18    10.0   .     S
V16     V22    10.0   .     S
V17     V14    10.0   1_545     S
V17     V10    10.0   1_545     S
V17     V21    10.0   .     S
V17     V3    10.0   1_554     S
V17     V22    10.0   1_545     S
V18     V22    10.0   .     S
V18     V4    10.0   1_554     S
V18     V21    10.0   .     S
V19     V16    10.0   1_545     S
V19     V12    10.0   1_545     S
V19     V13    10.0   1_655     S
V19     V23    10.0   .     S
V19     V1    10.0   1_654     S
V19     V24    10.0   1_545     S
V20     V14    10.0   1_655     S
V20     V24    10.0   .     S
V20     V2    10.0   1_654     S
V20     V23    10.0   .     S
V21     V1    10.0   1_554     S
V21     V5    10.0   1_554     S
V21     V3    10.0   1_554     S
V22     V2    10.0   1_554     S
V22     V6    10.0   1_554     S
V22     V4    10.0   1_554     S
V22     V17    10.0   1_565     S
V23     V3    10.0   1_554     S
V23     V7    10.0   1_554     S
V23     V13    10.0   1_655     S
V23     V1    10.0   1_654     S
V24     V4    10.0   1_554     S
V24     V8    10.0   1_554     S
V24     V14    10.0   1_655     S
V24     V2    10.0   1_654     S
V24     V19    10.0   1_565     S
V25     V6    10.0   1_545     S
V25     V29    10.0   .     S
V25     V42    10.0   1_545     S
V25     V31    10.0   1_455     S
V26     V30    10.0   .     S
V26     V41    10.0   .     S
V26     V32    10.0   1_455     S
V27     V8    10.0   1_545     S
V27     V31    10.0   .     S
V27     V44    10.0   1_545     S
V27     V29    10.0   .     S
V28     V32    10.0   .     S
V28     V43    10.0   .     S
V28     V30    10.0   .     S
V29     V6    10.0   1_545     S
V29     V42    10.0   1_545     S
V29     V43    10.0   .     S
V29     V47    10.0   .     S
V30     V41    10.0   .     S
V30     V44    10.0   .     S
V30     V48    10.0   .     S
V31     V8    10.0   1_545     S
V31     V44    10.0   1_545     S
V31     V41    10.0   1_655     S
V31     V45    10.0   1_655     S
V31     V25    10.0   1_655     S
V32     V43    10.0   .     S
V32     V42    10.0   1_655     S
V32     V46    10.0   1_655     S
V32     V26    10.0   1_655     S
V33     V45    10.0   .     S
V33     V37    10.0   .     S
V33     V47    10.0   .     S
V33     V43    10.0   .     S
V33     V40    10.0   .     S
V34     V46    10.0   .     S
V34     V38    10.0   .     S
V34     V48    10.0   .     S
V34     V44    10.0   .     S
V34     V39    10.0   1_565     S
V35     V47    10.0   .     S
V35     V39    10.0   .     S
V35     V45    10.0   1_655     S
V35     V41    10.0   1_655     S
V35     V38    10.0   1_655     S
V36     V48    10.0   .     S
V36     V40    10.0   .     S
V36     V46    10.0   1_655     S
V36     V42    10.0   1_655     S
V36     V37    10.0   1_665     S
V37     V10    10.0   1_545     S
V37     V14    10.0   1_545     S
V37     V45    10.0   .     S
V37     V36    10.0   1_445     S
V38     V46    10.0   .     S
V38     V35    10.0   1_455     S
V39     V12    10.0   1_545     S
V39     V16    10.0   1_545     S
V39     V47    10.0   .     S
V39     V34    10.0   1_545     S
V40     V48    10.0   .     S
V41     V31    10.0   1_455     S
V41     V45    10.0   .     S
V41     V35    10.0   1_455     S
V41     V46    10.0   .     S
V42     V29    10.0   1_565     S
V42     V25    10.0   1_565     S
V42     V32    10.0   1_455     S
V42     V46    10.0   .     S
V42     V36    10.0   1_455     S
V42     V45    10.0   1_565     S
V43     V47    10.0   .     S
V43     V48    10.0   .     S
V44     V31    10.0   1_565     S
V44     V27    10.0   1_565     S
V44     V48    10.0   .     S
V44     V47    10.0   1_565     S
V45     V31    10.0   1_455     S
V45     V35    10.0   1_455     S
V45     V42    10.0   1_545     S
V46     V32    10.0   1_455     S
V46     V36    10.0   1_455     S
V47     V44    10.0   1_545     S
