data_wkg
_audit_creation_date              2019-12-31
_audit_creation_method            'Pymatgen'
_symmetry_space_group_name_H-M    'P1'
_symmetry_Int_Tables_number       1
loop_
_symmetry_equiv_pos_as_xyz
  x,y,z
_cell_length_a                    34.357
_cell_length_b                    34.357
_cell_length_c                    51.1057
_cell_angle_alpha                 90.0
_cell_angle_beta                 90.0
_cell_angle_gamma                 120.0
loop_
_atom_site_label
_atom_site_type_symbol
_atom_site_fract_x
_atom_site_fract_y
_atom_site_fract_z
V1     V     0.0341   0.1667   0.5125
V2     V     0.0341   0.6667   0.5125
V3     V     0.5341   0.1667   0.5125
V4     V     0.5341   0.6667   0.5125
V5     V     0.0341   0.3674   0.6542
V6     V     0.0341   0.8674   0.6542
V7     V     0.5341   0.3674   0.6542
V8     V     0.5341   0.8674   0.6542
V9     V     0.3674   0.0341   0.6792
V10     V     0.3674   0.5341   0.6792
V11     V     0.8674   0.0341   0.6792
V12     V     0.8674   0.5341   0.6792
V13     V     0.1667   0.0341   0.8208
V14     V     0.1667   0.5341   0.8208
V15     V     0.6667   0.0341   0.8208
V16     V     0.6667   0.5341   0.8208
V17     V     0.3333   0.3674   0.8458
V18     V     0.3333   0.8674   0.8458
V19     V     0.8333   0.3674   0.8458
V20     V     0.8333   0.8674   0.8458
V21     V     0.1326   0.1667   0.9875
V22     V     0.1325   0.6667   0.9875
V23     V     0.6325   0.1667   0.9875
V24     V     0.6325   0.6667   0.9875
V25     V     0.4659   0.3333   0.0125
V26     V     0.4659   0.8333   0.0125
V27     V     0.9659   0.3333   0.0125
V28     V     0.9659   0.8333   0.0125
V29     V     0.4659   0.1326   0.1542
V30     V     0.4659   0.6326   0.1542
V31     V     0.9659   0.1326   0.1542
V32     V     0.9659   0.6326   0.1542
V33     V     0.1326   0.4659   0.1792
V34     V     0.1326   0.9659   0.1792
V35     V     0.6326   0.4659   0.1792
V36     V     0.6326   0.9659   0.1792
V37     V     0.3333   0.4659   0.3208
V38     V     0.3333   0.9659   0.3208
V39     V     0.8333   0.4659   0.3208
V40     V     0.8333   0.9659   0.3208
V41     V     0.1667   0.1326   0.3458
V42     V     0.1667   0.6326   0.3458
V43     V     0.6667   0.1326   0.3458
V44     V     0.6667   0.6326   0.3458
V45     V     0.3674   0.3333   0.4875
V46     V     0.3674   0.8333   0.4875
V47     V     0.8674   0.3333   0.4875
V48     V     0.8674   0.8333   0.4875
loop_
_geom_bond_atom_site_label_1
_geom_bond_atom_site_label_2
_geom_bond_distance
_geom_bond_site_symmetry_2
_ccdc_geom_bond_type
V1     V11    10.0   1_455     S
V1     V5    10.0   .     S
V1     V47    10.0   1_455     S
V1     V41    10.0   .     S
V1     V45    10.0   .     S
V1     V48    10.0   1_445     S
V2     V12    10.0   1_455     S
V2     V6    10.0   .     S
V2     V48    10.0   1_455     S
V2     V42    10.0   .     S
V2     V46    10.0   .     S
V2     V47    10.0   1_455     S
V3     V9    10.0   .     S
V3     V7    10.0   .     S
V3     V45    10.0   .     S
V3     V43    10.0   .     S
V3     V47    10.0   .     S
V3     V46    10.0   1_545     S
V4     V10    10.0   .     S
V4     V8    10.0   .     S
V4     V46    10.0   .     S
V4     V44    10.0   .     S
V4     V48    10.0   .     S
V4     V45    10.0   .     S
V5     V47    10.0   1_455     S
V5     V11    10.0   1_455     S
V5     V12    10.0   1_455     S
V5     V14    10.0   .     S
V5     V10    10.0   .     S
V6     V48    10.0   1_455     S
V6     V12    10.0   1_455     S
V6     V11    10.0   1_465     S
V6     V13    10.0   1_565     S
V6     V9    10.0   1_565     S
V7     V45    10.0   .     S
V7     V9    10.0   .     S
V7     V10    10.0   .     S
V7     V16    10.0   .     S
V7     V12    10.0   .     S
V8     V46    10.0   .     S
V8     V10    10.0   .     S
V8     V9    10.0   1_565     S
V8     V15    10.0   1_565     S
V8     V11    10.0   1_565     S
V9     V8    10.0   1_545     S
V9     V18    10.0   1_545     S
V9     V13    10.0   .     S
V9     V6    10.0   1_545     S
V10     V17    10.0   .     S
V10     V14    10.0   .     S
V11     V1    10.0   1_655     S
V11     V5    10.0   1_655     S
V11     V6    10.0   1_645     S
V11     V20    10.0   1_545     S
V11     V15    10.0   .     S
V11     V8    10.0   1_545     S
V12     V2    10.0   1_655     S
V12     V6    10.0   1_655     S
V12     V5    10.0   1_655     S
V12     V19    10.0   .     S
V12     V16    10.0   .     S
V13     V6    10.0   1_545     S
V13     V18    10.0   1_545     S
V13     V20    10.0   1_445     S
V13     V21    10.0   .     S
V13     V17    10.0   .     S
V14     V17    10.0   .     S
V14     V19    10.0   1_455     S
V14     V22    10.0   .     S
V14     V18    10.0   .     S
V15     V8    10.0   1_545     S
V15     V20    10.0   1_545     S
V15     V18    10.0   1_545     S
V15     V23    10.0   .     S
V15     V19    10.0   .     S
V16     V19    10.0   .     S
V16     V17    10.0   .     S
V16     V24    10.0   .     S
V16     V20    10.0   .     S
V17     V25    10.0   1_556     S
V17     V21    10.0   .     S
V18     V9    10.0   1_565     S
V18     V13    10.0   1_565     S
V18     V15    10.0   1_565     S
V18     V26    10.0   1_556     S
V18     V22    10.0   .     S
V19     V14    10.0   1_655     S
V19     V27    10.0   1_556     S
V19     V23    10.0   .     S
V20     V11    10.0   1_565     S
V20     V15    10.0   1_565     S
V20     V13    10.0   1_665     S
V20     V28    10.0   1_556     S
V20     V24    10.0   .     S
V21     V25    10.0   1_556     S
V21     V28    10.0   1_446     S
V21     V31    10.0   1_456     S
V21     V27    10.0   1_456     S
V22     V26    10.0   1_556     S
V22     V27    10.0   1_456     S
V22     V32    10.0   1_456     S
V22     V28    10.0   1_456     S
V23     V27    10.0   1_556     S
V23     V26    10.0   1_546     S
V23     V29    10.0   1_556     S
V23     V25    10.0   1_556     S
V24     V28    10.0   1_556     S
V24     V25    10.0   1_556     S
V24     V30    10.0   1_556     S
V24     V26    10.0   1_556     S
V25     V17    10.0   1_554     S
V25     V21    10.0   1_554     S
V25     V24    10.0   1_554     S
V25     V35    10.0   .     S
V25     V29    10.0   .     S
V25     V23    10.0   1_554     S
V26     V18    10.0   1_554     S
V26     V22    10.0   1_554     S
V26     V23    10.0   1_564     S
V26     V36    10.0   .     S
V26     V30    10.0   .     S
V26     V24    10.0   1_554     S
V27     V19    10.0   1_554     S
V27     V23    10.0   1_554     S
V27     V22    10.0   1_654     S
V27     V33    10.0   1_655     S
V27     V31    10.0   .     S
V27     V21    10.0   1_654     S
V28     V20    10.0   1_554     S
V28     V24    10.0   1_554     S
V28     V21    10.0   1_664     S
V28     V34    10.0   1_655     S
V28     V32    10.0   .     S
V28     V22    10.0   1_654     S
V29     V23    10.0   1_554     S
V29     V35    10.0   .     S
V29     V36    10.0   1_545     S
V29     V38    10.0   1_545     S
V29     V34    10.0   1_545     S
V30     V24    10.0   1_554     S
V30     V36    10.0   .     S
V30     V35    10.0   .     S
V30     V37    10.0   .     S
V30     V33    10.0   .     S
V31     V21    10.0   1_654     S
V31     V33    10.0   1_655     S
V31     V34    10.0   1_645     S
V31     V40    10.0   1_545     S
V31     V36    10.0   1_545     S
V32     V22    10.0   1_654     S
V32     V34    10.0   1_655     S
V32     V33    10.0   1_655     S
V32     V39    10.0   .     S
V32     V35    10.0   .     S
V33     V27    10.0   1_455     S
V33     V31    10.0   1_455     S
V33     V32    10.0   1_455     S
V33     V42    10.0   .     S
V33     V37    10.0   .     S
V34     V28    10.0   1_455     S
V34     V32    10.0   1_455     S
V34     V31    10.0   1_465     S
V34     V41    10.0   1_565     S
V34     V38    10.0   .     S
V34     V29    10.0   1_565     S
V35     V44    10.0   .     S
V35     V39    10.0   .     S
V36     V29    10.0   1_565     S
V36     V43    10.0   1_565     S
V36     V40    10.0   .     S
V36     V31    10.0   1_565     S
V37     V42    10.0   .     S
V37     V44    10.0   .     S
V37     V45    10.0   .     S
V37     V41    10.0   .     S
V38     V29    10.0   1_565     S
V38     V41    10.0   1_565     S
V38     V43    10.0   1_565     S
V38     V46    10.0   .     S
V38     V42    10.0   .     S
V39     V44    10.0   .     S
V39     V42    10.0   1_655     S
V39     V47    10.0   .     S
V39     V43    10.0   .     S
V40     V31    10.0   1_565     S
V40     V43    10.0   1_565     S
V40     V41    10.0   1_665     S
V40     V48    10.0   .     S
V40     V44    10.0   .     S
V41     V34    10.0   1_545     S
V41     V38    10.0   1_545     S
V41     V40    10.0   1_445     S
V41     V45    10.0   .     S
V42     V39    10.0   1_455     S
V42     V46    10.0   .     S
V43     V36    10.0   1_545     S
V43     V40    10.0   1_545     S
V43     V38    10.0   1_545     S
V43     V47    10.0   .     S
V44     V48    10.0   .     S
V46     V3    10.0   1_565     S
V47     V5    10.0   1_655     S
V47     V1    10.0   1_655     S
V47     V2    10.0   1_655     S
V48     V6    10.0   1_655     S
V48     V2    10.0   1_655     S
V48     V1    10.0   1_665     S
