data_wkh
_audit_creation_date              2019-12-31
_audit_creation_method            'Pymatgen'
_symmetry_space_group_name_H-M    'P1'
_symmetry_Int_Tables_number       1
loop_
_symmetry_equiv_pos_as_xyz
  x,y,z
_cell_length_a                    34.3698
_cell_length_b                    34.3698
_cell_length_c                    51.0668
_cell_angle_alpha                 90.0
_cell_angle_beta                 90.0
_cell_angle_gamma                 120.0
loop_
_atom_site_label
_atom_site_type_symbol
_atom_site_fract_x
_atom_site_fract_y
_atom_site_fract_z
V1     V     0.3333   0.3667   0.8211
V2     V     0.3333   0.8667   0.8211
V3     V     0.8333   0.3667   0.8211
V4     V     0.8333   0.8667   0.8211
V5     V     0.0333   0.3667   0.6789
V6     V     0.0333   0.8667   0.6789
V7     V     0.5333   0.3667   0.6789
V8     V     0.5333   0.8667   0.6789
V9     V     0.3667   0.0333   0.6544
V10     V     0.3667   0.5333   0.6544
V11     V     0.8667   0.0333   0.6544
V12     V     0.8667   0.5333   0.6544
V13     V     0.3667   0.3333   0.5122
V14     V     0.3667   0.8333   0.5122
V15     V     0.8667   0.3333   0.5122
V16     V     0.8667   0.8333   0.5122
V17     V     0.0333   0.1667   0.4878
V18     V     0.0333   0.6667   0.4878
V19     V     0.5333   0.1667   0.4878
V20     V     0.5333   0.6667   0.4878
V21     V     0.3333   0.4667   0.3456
V22     V     0.3333   0.9667   0.3456
V23     V     0.8333   0.4667   0.3456
V24     V     0.8333   0.9667   0.3456
V25     V     0.1667   0.1333   0.3211
V26     V     0.1667   0.6333   0.3211
V27     V     0.6667   0.1333   0.3211
V28     V     0.6667   0.6333   0.3211
V29     V     0.4667   0.1333   0.1789
V30     V     0.4667   0.6333   0.1789
V31     V     0.9667   0.1333   0.1789
V32     V     0.9667   0.6333   0.1789
V33     V     0.1333   0.4667   0.1544
V34     V     0.1333   0.9667   0.1544
V35     V     0.6333   0.4667   0.1544
V36     V     0.6333   0.9667   0.1544
V37     V     0.1333   0.1667   0.0122
V38     V     0.1333   0.6667   0.0122
V39     V     0.6333   0.1667   0.0122
V40     V     0.6333   0.6667   0.0122
V41     V     0.4667   0.3333   0.9878
V42     V     0.4667   0.8333   0.9878
V43     V     0.9667   0.3333   0.9878
V44     V     0.9667   0.8333   0.9878
V45     V     0.1667   0.0333   0.8456
V46     V     0.1667   0.5333   0.8456
V47     V     0.6667   0.0333   0.8456
V48     V     0.6667   0.5333   0.8456
loop_
_geom_bond_atom_site_label_1
_geom_bond_atom_site_label_2
_geom_bond_distance
_geom_bond_site_symmetry_2
_ccdc_geom_bond_type
V1     V10    10.0   .     S
V1     V7    10.0   .     S
V1     V46    10.0   .     S
V1     V41    10.0   .     S
V1     V48    10.0   .     S
V1     V45    10.0   .     S
V2     V9    10.0   1_565     S
V2     V8    10.0   .     S
V2     V45    10.0   1_565     S
V2     V42    10.0   .     S
V2     V47    10.0   1_565     S
V2     V46    10.0   .     S
V3     V12    10.0   .     S
V3     V5    10.0   1_655     S
V3     V48    10.0   .     S
V3     V43    10.0   .     S
V3     V46    10.0   1_655     S
V3     V47    10.0   .     S
V4     V11    10.0   1_565     S
V4     V6    10.0   1_655     S
V4     V47    10.0   1_565     S
V4     V44    10.0   .     S
V4     V45    10.0   1_665     S
V4     V48    10.0   .     S
V5     V46    10.0   .     S
V5     V3    10.0   1_455     S
V5     V12    10.0   1_455     S
V5     V15    10.0   1_455     S
V5     V11    10.0   1_455     S
V5     V10    10.0   .     S
V6     V45    10.0   1_565     S
V6     V4    10.0   1_455     S
V6     V11    10.0   1_465     S
V6     V16    10.0   1_455     S
V6     V12    10.0   1_455     S
V6     V9    10.0   1_565     S
V7     V48    10.0   .     S
V7     V10    10.0   .     S
V7     V13    10.0   .     S
V7     V9    10.0   .     S
V7     V12    10.0   .     S
V8     V47    10.0   1_565     S
V8     V9    10.0   1_565     S
V8     V14    10.0   .     S
V8     V10    10.0   .     S
V8     V11    10.0   1_565     S
V9     V2    10.0   1_545     S
V9     V8    10.0   1_545     S
V9     V19    10.0   .     S
V9     V14    10.0   1_545     S
V9     V6    10.0   1_545     S
V10     V20    10.0   .     S
V10     V13    10.0   .     S
V11     V4    10.0   1_545     S
V11     V6    10.0   1_645     S
V11     V17    10.0   1_655     S
V11     V16    10.0   1_545     S
V11     V5    10.0   1_655     S
V11     V8    10.0   1_545     S
V12     V5    10.0   1_655     S
V12     V18    10.0   1_655     S
V12     V15    10.0   .     S
V12     V6    10.0   1_655     S
V13     V20    10.0   .     S
V13     V19    10.0   .     S
V13     V21    10.0   .     S
V13     V17    10.0   .     S
V14     V9    10.0   1_565     S
V14     V19    10.0   1_565     S
V14     V20    10.0   .     S
V14     V22    10.0   .     S
V14     V18    10.0   .     S
V15     V5    10.0   1_655     S
V15     V18    10.0   1_655     S
V15     V17    10.0   1_655     S
V15     V23    10.0   .     S
V15     V19    10.0   .     S
V16     V6    10.0   1_655     S
V16     V11    10.0   1_565     S
V16     V17    10.0   1_665     S
V16     V18    10.0   1_655     S
V16     V24    10.0   .     S
V16     V20    10.0   .     S
V17     V11    10.0   1_455     S
V17     V16    10.0   1_445     S
V17     V15    10.0   1_455     S
V17     V25    10.0   .     S
V17     V24    10.0   1_445     S
V18     V12    10.0   1_455     S
V18     V15    10.0   1_455     S
V18     V16    10.0   1_455     S
V18     V26    10.0   .     S
V18     V23    10.0   1_455     S
V19     V14    10.0   1_545     S
V19     V27    10.0   .     S
V19     V22    10.0   1_545     S
V20     V28    10.0   .     S
V20     V21    10.0   .     S
V21     V28    10.0   .     S
V21     V30    10.0   .     S
V21     V26    10.0   .     S
V21     V25    10.0   .     S
V22     V19    10.0   1_565     S
V22     V27    10.0   1_565     S
V22     V29    10.0   1_565     S
V22     V25    10.0   1_565     S
V22     V26    10.0   .     S
V23     V18    10.0   1_655     S
V23     V26    10.0   1_655     S
V23     V32    10.0   .     S
V23     V28    10.0   .     S
V23     V27    10.0   .     S
V24     V17    10.0   1_665     S
V24     V25    10.0   1_665     S
V24     V31    10.0   1_565     S
V24     V27    10.0   1_565     S
V24     V28    10.0   .     S
V25     V24    10.0   1_445     S
V25     V34    10.0   1_545     S
V25     V31    10.0   1_455     S
V25     V22    10.0   1_545     S
V26     V23    10.0   1_455     S
V26     V33    10.0   .     S
V26     V32    10.0   1_455     S
V27     V22    10.0   1_545     S
V27     V36    10.0   1_545     S
V27     V29    10.0   .     S
V27     V24    10.0   1_545     S
V28     V35    10.0   .     S
V28     V30    10.0   .     S
V29     V22    10.0   1_545     S
V29     V36    10.0   1_545     S
V29     V39    10.0   .     S
V29     V35    10.0   .     S
V29     V34    10.0   1_545     S
V30     V35    10.0   .     S
V30     V40    10.0   .     S
V30     V36    10.0   .     S
V30     V33    10.0   .     S
V31     V24    10.0   1_545     S
V31     V25    10.0   1_655     S
V31     V34    10.0   1_645     S
V31     V37    10.0   1_655     S
V31     V33    10.0   1_655     S
V31     V36    10.0   1_545     S
V32     V26    10.0   1_655     S
V32     V33    10.0   1_655     S
V32     V38    10.0   1_655     S
V32     V34    10.0   1_655     S
V32     V35    10.0   .     S
V33     V32    10.0   1_455     S
V33     V43    10.0   1_454     S
V33     V38    10.0   .     S
V33     V31    10.0   1_455     S
V34     V25    10.0   1_565     S
V34     V31    10.0   1_465     S
V34     V44    10.0   1_454     S
V34     V37    10.0   1_565     S
V34     V32    10.0   1_455     S
V34     V29    10.0   1_565     S
V35     V41    10.0   1_554     S
V35     V40    10.0   .     S
V36     V27    10.0   1_565     S
V36     V29    10.0   1_565     S
V36     V42    10.0   1_554     S
V36     V39    10.0   1_565     S
V36     V31    10.0   1_565     S
V37     V31    10.0   1_455     S
V37     V34    10.0   1_545     S
V37     V44    10.0   1_444     S
V37     V45    10.0   1_554     S
V37     V41    10.0   1_554     S
V37     V43    10.0   1_454     S
V38     V32    10.0   1_455     S
V38     V43    10.0   1_454     S
V38     V46    10.0   1_554     S
V38     V42    10.0   1_554     S
V38     V44    10.0   1_454     S
V39     V36    10.0   1_545     S
V39     V42    10.0   1_544     S
V39     V47    10.0   1_554     S
V39     V43    10.0   1_554     S
V39     V41    10.0   1_554     S
V40     V41    10.0   1_554     S
V40     V48    10.0   1_554     S
V40     V44    10.0   1_554     S
V40     V42    10.0   1_554     S
V41     V35    10.0   1_556     S
V41     V40    10.0   1_556     S
V41     V48    10.0   .     S
V41     V37    10.0   1_556     S
V41     V39    10.0   1_556     S
V42     V36    10.0   1_556     S
V42     V39    10.0   1_566     S
V42     V47    10.0   1_565     S
V42     V38    10.0   1_556     S
V42     V40    10.0   1_556     S
V43     V33    10.0   1_656     S
V43     V38    10.0   1_656     S
V43     V46    10.0   1_655     S
V43     V39    10.0   1_556     S
V43     V37    10.0   1_656     S
V44     V34    10.0   1_656     S
V44     V37    10.0   1_666     S
V44     V45    10.0   1_665     S
V44     V40    10.0   1_556     S
V44     V38    10.0   1_656     S
V45     V6    10.0   1_545     S
V45     V2    10.0   1_545     S
V45     V37    10.0   1_556     S
V45     V44    10.0   1_445     S
V45     V4    10.0   1_445     S
V46     V38    10.0   1_556     S
V46     V43    10.0   1_455     S
V46     V3    10.0   1_455     S
V47     V8    10.0   1_545     S
V47     V4    10.0   1_545     S
V47     V39    10.0   1_556     S
V47     V42    10.0   1_545     S
V47     V2    10.0   1_545     S
V48     V40    10.0   1_556     S
