data_wki
_audit_creation_date              2019-12-31
_audit_creation_method            'Pymatgen'
_symmetry_space_group_name_H-M    'P1'
_symmetry_Int_Tables_number       1
loop_
_symmetry_equiv_pos_as_xyz
  x,y,z
_cell_length_a                    36.4396
_cell_length_b                    36.4396
_cell_length_c                    45.6248
_cell_angle_alpha                 90.0
_cell_angle_beta                 90.0
_cell_angle_gamma                 120.0
loop_
_atom_site_label
_atom_site_type_symbol
_atom_site_fract_x
_atom_site_fract_y
_atom_site_fract_z
V1     V     0.4828   0.169   0.6764
V2     V     0.4828   0.669   0.6764
V3     V     0.9828   0.169   0.6764
V4     V     0.9828   0.669   0.6764
V5     V     0.4828   0.3138   0.4902
V6     V     0.4828   0.8138   0.4902
V7     V     0.9828   0.3138   0.4902
V8     V     0.9828   0.8138   0.4902
V9     V     0.3138   0.4828   0.8431
V10     V     0.3138   0.9828   0.8431
V11     V     0.8138   0.4828   0.8431
V12     V     0.8138   0.9828   0.8431
V13     V     0.169   0.4828   0.6569
V14     V     0.169   0.9828   0.6569
V15     V     0.669   0.4828   0.6569
V16     V     0.669   0.9828   0.6569
V17     V     0.1862   0.169   0.8236
V18     V     0.1862   0.669   0.8236
V19     V     0.6862   0.169   0.8236
V20     V     0.6862   0.669   0.8236
V21     V     0.331   0.3138   0.0098
V22     V     0.331   0.8138   0.0098
V23     V     0.831   0.3138   0.0098
V24     V     0.831   0.8138   0.0098
V25     V     0.0172   0.331   0.1764
V26     V     0.0172   0.831   0.1764
V27     V     0.5172   0.331   0.1764
V28     V     0.5172   0.831   0.1764
V29     V     0.0172   0.1862   0.9902
V30     V     0.0172   0.6862   0.9902
V31     V     0.5172   0.1862   0.9902
V32     V     0.5172   0.6862   0.9902
V33     V     0.331   0.0172   0.1569
V34     V     0.331   0.5172   0.1569
V35     V     0.831   0.0172   0.1569
V36     V     0.831   0.5172   0.1569
V37     V     0.1862   0.0172   0.3431
V38     V     0.1862   0.5172   0.3431
V39     V     0.6862   0.0172   0.3431
V40     V     0.6862   0.5172   0.3431
V41     V     0.169   0.1862   0.5098
V42     V     0.169   0.6862   0.5098
V43     V     0.669   0.1862   0.5098
V44     V     0.669   0.6862   0.5098
V45     V     0.3138   0.331   0.3236
V46     V     0.3138   0.831   0.3236
V47     V     0.8138   0.331   0.3236
V48     V     0.8138   0.831   0.3236
loop_
_geom_bond_atom_site_label_1
_geom_bond_atom_site_label_2
_geom_bond_distance
_geom_bond_site_symmetry_2
_ccdc_geom_bond_type
V1     V43    10.0   .     S
V1     V5    10.0   .     S
V1     V15    10.0   .     S
V1     V10    10.0   1_545     S
V1     V14    10.0   1_545     S
V1     V19    10.0   .     S
V2     V44    10.0   .     S
V2     V6    10.0   .     S
V2     V16    10.0   .     S
V2     V9    10.0   .     S
V2     V13    10.0   .     S
V2     V20    10.0   .     S
V3     V41    10.0   1_655     S
V3     V7    10.0   .     S
V3     V13    10.0   1_655     S
V3     V12    10.0   1_545     S
V3     V16    10.0   1_545     S
V3     V17    10.0   1_655     S
V4     V42    10.0   1_655     S
V4     V8    10.0   .     S
V4     V14    10.0   1_655     S
V4     V11    10.0   .     S
V4     V15    10.0   .     S
V4     V18    10.0   1_655     S
V5     V43    10.0   .     S
V5     V15    10.0   .     S
V5     V40    10.0   .     S
V5     V45    10.0   .     S
V5     V41    10.0   .     S
V6     V44    10.0   .     S
V6     V16    10.0   .     S
V6     V39    10.0   1_565     S
V6     V46    10.0   .     S
V6     V42    10.0   .     S
V7     V41    10.0   1_655     S
V7     V13    10.0   1_655     S
V7     V38    10.0   1_655     S
V7     V47    10.0   .     S
V7     V43    10.0   .     S
V8     V42    10.0   1_655     S
V8     V14    10.0   1_655     S
V8     V37    10.0   1_665     S
V8     V48    10.0   .     S
V8     V44    10.0   .     S
V9     V13    10.0   .     S
V9     V18    10.0   .     S
V9     V21    10.0   1_556     S
V9     V17    10.0   .     S
V9     V32    10.0   .     S
V10     V1    10.0   1_565     S
V10     V14    10.0   .     S
V10     V17    10.0   1_565     S
V10     V22    10.0   1_556     S
V10     V18    10.0   .     S
V10     V31    10.0   1_565     S
V11     V15    10.0   .     S
V11     V20    10.0   .     S
V11     V23    10.0   1_556     S
V11     V19    10.0   .     S
V11     V30    10.0   1_655     S
V12     V3    10.0   1_565     S
V12     V16    10.0   .     S
V12     V19    10.0   1_565     S
V12     V24    10.0   1_556     S
V12     V20    10.0   .     S
V12     V29    10.0   1_665     S
V13     V3    10.0   1_455     S
V13     V7    10.0   1_455     S
V13     V18    10.0   .     S
V13     V42    10.0   .     S
V14     V4    10.0   1_455     S
V14     V8    10.0   1_455     S
V14     V1    10.0   1_565     S
V14     V17    10.0   1_565     S
V14     V41    10.0   1_565     S
V15     V20    10.0   .     S
V15     V44    10.0   .     S
V16     V3    10.0   1_565     S
V16     V19    10.0   1_565     S
V16     V43    10.0   1_565     S
V17     V10    10.0   1_545     S
V17     V14    10.0   1_545     S
V17     V29    10.0   .     S
V17     V21    10.0   1_556     S
V17     V3    10.0   1_455     S
V18     V30    10.0   .     S
V18     V22    10.0   1_556     S
V18     V4    10.0   1_455     S
V19     V12    10.0   1_545     S
V19     V16    10.0   1_545     S
V19     V31    10.0   .     S
V19     V23    10.0   1_556     S
V20     V32    10.0   .     S
V20     V24    10.0   1_556     S
V21     V9    10.0   1_554     S
V21     V17    10.0   1_554     S
V21     V29    10.0   1_554     S
V21     V27    10.0   .     S
V21     V31    10.0   1_554     S
V21     V34    10.0   .     S
V22     V10    10.0   1_554     S
V22     V18    10.0   1_554     S
V22     V30    10.0   1_554     S
V22     V28    10.0   .     S
V22     V32    10.0   1_554     S
V22     V33    10.0   1_565     S
V23     V11    10.0   1_554     S
V23     V19    10.0   1_554     S
V23     V31    10.0   1_554     S
V23     V25    10.0   1_655     S
V23     V29    10.0   1_654     S
V23     V36    10.0   .     S
V24     V12    10.0   1_554     S
V24     V20    10.0   1_554     S
V24     V32    10.0   1_554     S
V24     V26    10.0   1_655     S
V24     V30    10.0   1_654     S
V24     V35    10.0   1_565     S
V25     V23    10.0   1_455     S
V25     V29    10.0   1_554     S
V25     V35    10.0   1_455     S
V25     V34    10.0   .     S
V25     V38    10.0   .     S
V25     V47    10.0   1_455     S
V26     V24    10.0   1_455     S
V26     V30    10.0   1_554     S
V26     V36    10.0   1_455     S
V26     V33    10.0   1_565     S
V26     V37    10.0   1_565     S
V26     V48    10.0   1_455     S
V27     V31    10.0   1_554     S
V27     V33    10.0   .     S
V27     V36    10.0   .     S
V27     V40    10.0   .     S
V27     V45    10.0   .     S
V28     V32    10.0   1_554     S
V28     V34    10.0   .     S
V28     V35    10.0   1_565     S
V28     V39    10.0   1_565     S
V28     V46    10.0   .     S
V29     V21    10.0   1_556     S
V29     V35    10.0   1_456     S
V29     V25    10.0   1_556     S
V29     V23    10.0   1_456     S
V29     V12    10.0   1_445     S
V30     V22    10.0   1_556     S
V30     V36    10.0   1_456     S
V30     V26    10.0   1_556     S
V30     V24    10.0   1_456     S
V30     V11    10.0   1_455     S
V31     V23    10.0   1_556     S
V31     V33    10.0   1_556     S
V31     V27    10.0   1_556     S
V31     V21    10.0   1_556     S
V31     V10    10.0   1_545     S
V32     V24    10.0   1_556     S
V32     V34    10.0   1_556     S
V32     V28    10.0   1_556     S
V32     V22    10.0   1_556     S
V33     V31    10.0   1_554     S
V33     V46    10.0   1_545     S
V33     V37    10.0   .     S
V33     V26    10.0   1_545     S
V33     V22    10.0   1_545     S
V34     V32    10.0   1_554     S
V34     V45    10.0   .     S
V34     V38    10.0   .     S
V35     V29    10.0   1_654     S
V35     V25    10.0   1_655     S
V35     V48    10.0   1_545     S
V35     V39    10.0   .     S
V35     V28    10.0   1_545     S
V35     V24    10.0   1_545     S
V36     V30    10.0   1_654     S
V36     V26    10.0   1_655     S
V36     V47    10.0   .     S
V36     V40    10.0   .     S
V37     V8    10.0   1_445     S
V37     V46    10.0   1_545     S
V37     V26    10.0   1_545     S
V37     V41    10.0   .     S
V37     V45    10.0   .     S
V38     V7    10.0   1_455     S
V38     V45    10.0   .     S
V38     V42    10.0   .     S
V38     V46    10.0   .     S
V39     V6    10.0   1_545     S
V39     V48    10.0   1_545     S
V39     V28    10.0   1_545     S
V39     V43    10.0   .     S
V39     V47    10.0   .     S
V40     V47    10.0   .     S
V40     V44    10.0   .     S
V40     V48    10.0   .     S
V41     V3    10.0   1_455     S
V41     V7    10.0   1_455     S
V41     V14    10.0   1_545     S
V41     V45    10.0   .     S
V42     V4    10.0   1_455     S
V42     V8    10.0   1_455     S
V42     V46    10.0   .     S
V43     V16    10.0   1_545     S
V43     V47    10.0   .     S
V44     V48    10.0   .     S
V46     V33    10.0   1_565     S
V46     V37    10.0   1_565     S
V47     V25    10.0   1_655     S
V48     V35    10.0   1_565     S
V48     V39    10.0   1_565     S
V48     V26    10.0   1_655     S
