data_wkj
_audit_creation_date              2019-12-31
_audit_creation_method            'Pymatgen'
_symmetry_space_group_name_H-M    'P1'
_symmetry_Int_Tables_number       1
loop_
_symmetry_equiv_pos_as_xyz
  x,y,z
_cell_length_a                    38.7553
_cell_length_b                    38.7553
_cell_length_c                    28.2838
_cell_angle_alpha                 90.0
_cell_angle_beta                 90.0
_cell_angle_gamma                 120.0
loop_
_atom_site_label
_atom_site_type_symbol
_atom_site_fract_x
_atom_site_fract_y
_atom_site_fract_z
V1     V     0.6439   0.5386   0.2917
V2     V     0.6439   0.5386   0.7917
V3     V     0.5386   0.6439   0.0417
V4     V     0.5386   0.6439   0.5417
V5     V     0.1053   0.6439   0.4583
V6     V     0.1053   0.6439   0.9583
V7     V     0.8947   0.5386   0.2083
V8     V     0.8947   0.5386   0.7083
V9     V     0.6439   0.1053   0.375
V10     V     0.6439   0.1053   0.875
V11     V     0.5386   0.8947   0.125
V12     V     0.5386   0.8947   0.625
V13     V     0.4614   0.1053   0.125
V14     V     0.4614   0.1053   0.625
V15     V     0.3561   0.8947   0.375
V16     V     0.3561   0.8947   0.875
V17     V     0.3561   0.4614   0.2917
V18     V     0.3561   0.4614   0.7917
V19     V     0.4614   0.3561   0.0417
V20     V     0.4614   0.3561   0.5417
V21     V     0.1053   0.4614   0.2083
V22     V     0.1053   0.4614   0.7083
V23     V     0.8947   0.3561   0.4583
V24     V     0.8947   0.3561   0.9583
loop_
_geom_bond_atom_site_label_1
_geom_bond_atom_site_label_2
_geom_bond_distance
_geom_bond_site_symmetry_2
_ccdc_geom_bond_type
V1     V19    10.0   .     S
V1     V17    10.0   .     S
V1     V20    10.0   .     S
V1     V3    10.0   .     S
V1     V4    10.0   .     S
V1     V7    10.0   .     S
V2     V20    10.0   .     S
V2     V18    10.0   .     S
V2     V19    10.0   1_556     S
V2     V4    10.0   .     S
V2     V3    10.0   1_556     S
V2     V8    10.0   .     S
V3     V17    10.0   .     S
V3     V19    10.0   .     S
V3     V18    10.0   1_554     S
V3     V2    10.0   1_554     S
V3     V11    10.0   .     S
V4     V18    10.0   .     S
V4     V20    10.0   .     S
V4     V17    10.0   .     S
V4     V12    10.0   .     S
V5     V21    10.0   .     S
V5     V22    10.0   .     S
V5     V23    10.0   1_455     S
V5     V7    10.0   1_455     S
V5     V8    10.0   1_455     S
V5     V15    10.0   .     S
V6     V22    10.0   .     S
V6     V21    10.0   1_556     S
V6     V24    10.0   1_455     S
V6     V8    10.0   1_455     S
V6     V7    10.0   1_456     S
V6     V16    10.0   .     S
V7     V21    10.0   1_655     S
V7     V23    10.0   .     S
V7     V24    10.0   1_554     S
V7     V5    10.0   1_655     S
V7     V6    10.0   1_654     S
V8     V22    10.0   1_655     S
V8     V24    10.0   .     S
V8     V23    10.0   .     S
V8     V6    10.0   1_655     S
V8     V5    10.0   1_655     S
V9     V14    10.0   .     S
V9     V15    10.0   1_545     S
V9     V13    10.0   .     S
V9     V12    10.0   1_545     S
V9     V11    10.0   1_545     S
V9     V23    10.0   .     S
V10     V13    10.0   1_556     S
V10     V16    10.0   1_545     S
V10     V14    10.0   .     S
V10     V11    10.0   1_546     S
V10     V12    10.0   1_545     S
V10     V24    10.0   .     S
V11     V13    10.0   1_565     S
V11     V16    10.0   1_554     S
V11     V15    10.0   .     S
V11     V10    10.0   1_564     S
V11     V9    10.0   1_565     S
V12     V14    10.0   1_565     S
V12     V15    10.0   .     S
V12     V16    10.0   .     S
V12     V9    10.0   1_565     S
V12     V10    10.0   1_565     S
V13     V10    10.0   1_554     S
V13     V11    10.0   1_545     S
V13     V16    10.0   1_544     S
V13     V15    10.0   1_545     S
V13     V19    10.0   .     S
V14     V12    10.0   1_545     S
V14     V15    10.0   1_545     S
V14     V16    10.0   1_545     S
V14     V20    10.0   .     S
V15     V9    10.0   1_565     S
V15     V14    10.0   1_565     S
V15     V13    10.0   1_565     S
V16     V10    10.0   1_565     S
V16     V11    10.0   1_556     S
V16     V13    10.0   1_566     S
V16     V14    10.0   1_565     S
V17     V19    10.0   .     S
V17     V20    10.0   .     S
V17     V21    10.0   .     S
V18     V3    10.0   1_556     S
V18     V20    10.0   .     S
V18     V19    10.0   1_556     S
V18     V22    10.0   .     S
V19     V2    10.0   1_554     S
V19     V18    10.0   1_554     S
V21     V7    10.0   1_455     S
V21     V6    10.0   1_554     S
V21     V23    10.0   1_455     S
V21     V24    10.0   1_454     S
V22     V8    10.0   1_455     S
V22     V24    10.0   1_455     S
V22     V23    10.0   1_455     S
V23     V5    10.0   1_655     S
V23     V21    10.0   1_655     S
V23     V22    10.0   1_655     S
V24     V6    10.0   1_655     S
V24     V7    10.0   1_556     S
V24     V22    10.0   1_655     S
V24     V21    10.0   1_656     S
