data_wkk
_audit_creation_date              2019-12-31
_audit_creation_method            'Pymatgen'
_symmetry_space_group_name_H-M    'P1'
_symmetry_Int_Tables_number       1
loop_
_symmetry_equiv_pos_as_xyz
  x,y,z
_cell_length_a                    44.2588
_cell_length_b                    44.2588
_cell_length_c                    30.0
_cell_angle_alpha                 90.0
_cell_angle_beta                 90.0
_cell_angle_gamma                 120.0
loop_
_atom_site_label
_atom_site_type_symbol
_atom_site_fract_x
_atom_site_fract_y
_atom_site_fract_z
V1     V     0.5471   0.8714   0.3056
V2     V     0.5471   0.8714   0.6389
V3     V     0.5471   0.8714   0.9722
V4     V     0.6757   0.1286   0.0278
V5     V     0.6757   0.1286   0.3611
V6     V     0.6757   0.1286   0.6944
V7     V     0.3243   0.8714   0.0278
V8     V     0.3243   0.8714   0.3611
V9     V     0.3243   0.8714   0.6944
V10     V     0.4529   0.1286   0.3056
V11     V     0.4529   0.1286   0.6389
V12     V     0.4529   0.1286   0.9722
V13     V     0.3243   0.4529   0.0833
V14     V     0.3243   0.4529   0.4167
V15     V     0.3243   0.4529   0.75
V16     V     0.4529   0.3243   0.1389
V17     V     0.4529   0.3243   0.4722
V18     V     0.4529   0.3243   0.8056
V19     V     0.6757   0.5471   0.0833
V20     V     0.6757   0.5471   0.4167
V21     V     0.6757   0.5471   0.75
V22     V     0.5471   0.6757   0.1389
V23     V     0.5471   0.6757   0.4722
V24     V     0.5471   0.6757   0.8056
V25     V     0.1286   0.6757   0.1944
V26     V     0.1286   0.6757   0.5278
V27     V     0.1286   0.6757   0.8611
V28     V     0.8714   0.5471   0.25
V29     V     0.8714   0.5471   0.5833
V30     V     0.8714   0.5471   0.9167
V31     V     0.8714   0.3243   0.1944
V32     V     0.8714   0.3243   0.5278
V33     V     0.8714   0.3243   0.8611
V34     V     0.1286   0.4529   0.25
V35     V     0.1286   0.4529   0.5833
V36     V     0.1286   0.4529   0.9167
loop_
_geom_bond_atom_site_label_1
_geom_bond_atom_site_label_2
_geom_bond_distance
_geom_bond_site_symmetry_2
_ccdc_geom_bond_type
V1     V23    10.0   .     S
V1     V22    10.0   .     S
V1     V8    10.0   .     S
V1     V5    10.0   1_565     S
V1     V3    10.0   1_554     S
V1     V2    10.0   .     S
V2     V24    10.0   .     S
V2     V23    10.0   .     S
V2     V9    10.0   .     S
V2     V6    10.0   1_565     S
V2     V3    10.0   .     S
V3     V22    10.0   1_556     S
V3     V24    10.0   .     S
V3     V7    10.0   1_556     S
V3     V4    10.0   1_566     S
V3     V1    10.0   1_556     S
V4     V3    10.0   1_544     S
V4     V12    10.0   1_554     S
V4     V5    10.0   .     S
V4     V6    10.0   1_554     S
V4     V33    10.0   1_554     S
V4     V31    10.0   .     S
V5     V1    10.0   1_545     S
V5     V10    10.0   .     S
V5     V6    10.0   .     S
V5     V31    10.0   .     S
V5     V32    10.0   .     S
V6     V2    10.0   1_545     S
V6     V11    10.0   .     S
V6     V4    10.0   1_556     S
V6     V32    10.0   .     S
V6     V33    10.0   .     S
V7     V27    10.0   1_554     S
V7     V25    10.0   .     S
V7     V3    10.0   1_554     S
V7     V12    10.0   1_564     S
V7     V8    10.0   .     S
V7     V9    10.0   1_554     S
V8     V25    10.0   .     S
V8     V26    10.0   .     S
V8     V10    10.0   1_565     S
V8     V9    10.0   .     S
V9     V26    10.0   .     S
V9     V27    10.0   .     S
V9     V11    10.0   1_565     S
V9     V7    10.0   1_556     S
V10     V8    10.0   1_545     S
V10     V12    10.0   1_554     S
V10     V11    10.0   .     S
V10     V17    10.0   .     S
V10     V16    10.0   .     S
V11     V9    10.0   1_545     S
V11     V12    10.0   .     S
V11     V18    10.0   .     S
V11     V17    10.0   .     S
V12     V4    10.0   1_556     S
V12     V7    10.0   1_546     S
V12     V10    10.0   1_556     S
V12     V16    10.0   1_556     S
V12     V18    10.0   .     S
V13     V16    10.0   .     S
V13     V22    10.0   .     S
V13     V14    10.0   .     S
V13     V15    10.0   1_554     S
V13     V34    10.0   .     S
V13     V36    10.0   1_554     S
V14     V17    10.0   .     S
V14     V23    10.0   .     S
V14     V15    10.0   .     S
V14     V35    10.0   .     S
V14     V34    10.0   .     S
V15     V18    10.0   .     S
V15     V24    10.0   .     S
V15     V13    10.0   1_556     S
V15     V36    10.0   .     S
V15     V35    10.0   .     S
V16     V12    10.0   1_554     S
V16     V19    10.0   .     S
V16     V17    10.0   .     S
V16     V18    10.0   1_554     S
V17     V20    10.0   .     S
V17     V18    10.0   .     S
V18     V21    10.0   .     S
V18     V16    10.0   1_556     S
V19     V22    10.0   .     S
V19     V20    10.0   .     S
V19     V21    10.0   1_554     S
V19     V28    10.0   .     S
V19     V30    10.0   1_554     S
V20     V23    10.0   .     S
V20     V21    10.0   .     S
V20     V29    10.0   .     S
V20     V28    10.0   .     S
V21     V24    10.0   .     S
V21     V19    10.0   1_556     S
V21     V30    10.0   .     S
V21     V29    10.0   .     S
V22     V3    10.0   1_554     S
V22     V23    10.0   .     S
V22     V24    10.0   1_554     S
V23     V24    10.0   .     S
V24     V22    10.0   1_556     S
V25     V28    10.0   1_455     S
V25     V34    10.0   .     S
V25     V27    10.0   1_554     S
V25     V26    10.0   .     S
V26     V29    10.0   1_455     S
V26     V35    10.0   .     S
V26     V27    10.0   .     S
V27     V7    10.0   1_556     S
V27     V30    10.0   1_455     S
V27     V36    10.0   .     S
V27     V25    10.0   1_556     S
V28     V25    10.0   1_655     S
V28     V31    10.0   .     S
V28     V30    10.0   1_554     S
V28     V29    10.0   .     S
V29     V26    10.0   1_655     S
V29     V32    10.0   .     S
V29     V30    10.0   .     S
V30     V19    10.0   1_556     S
V30     V27    10.0   1_655     S
V30     V33    10.0   .     S
V30     V28    10.0   1_556     S
V31     V34    10.0   1_655     S
V31     V33    10.0   1_554     S
V31     V32    10.0   .     S
V32     V35    10.0   1_655     S
V32     V33    10.0   .     S
V33     V4    10.0   1_556     S
V33     V36    10.0   1_655     S
V33     V31    10.0   1_556     S
V34     V31    10.0   1_455     S
V34     V36    10.0   1_554     S
V34     V35    10.0   .     S
V35     V32    10.0   1_455     S
V35     V36    10.0   .     S
V36     V13    10.0   1_556     S
V36     V33    10.0   1_455     S
V36     V34    10.0   1_556     S
