data_wkl
_audit_creation_date              2019-12-31
_audit_creation_method            'Pymatgen'
_symmetry_space_group_name_H-M    'P1'
_symmetry_Int_Tables_number       1
loop_
_symmetry_equiv_pos_as_xyz
  x,y,z
_cell_length_a                    45.7013
_cell_length_b                    45.7013
_cell_length_c                    30.0
_cell_angle_alpha                 90.0
_cell_angle_beta                 90.0
_cell_angle_gamma                 120.0
loop_
_atom_site_label
_atom_site_type_symbol
_atom_site_fract_x
_atom_site_fract_y
_atom_site_fract_z
V1     V     0.3421   0.8737   0.3333
V2     V     0.3421   0.8737   0.6667
V3     V     0.3421   0.8737   1.0
V4     V     0.4684   0.1263   0.0
V5     V     0.4684   0.1263   0.3333
V6     V     0.4684   0.1263   0.6667
V7     V     0.6579   0.1263   0.1667
V8     V     0.6579   0.1263   0.5
V9     V     0.6579   0.1263   0.8333
V10     V     0.5316   0.8737   0.1667
V11     V     0.5316   0.8737   0.5
V12     V     0.5316   0.8737   0.8333
V13     V     0.6579   0.5316   0.2222
V14     V     0.6579   0.5316   0.5556
V15     V     0.6579   0.5316   0.8889
V16     V     0.4684   0.3421   0.0556
V17     V     0.4684   0.3421   0.3889
V18     V     0.4684   0.3421   0.7222
V19     V     0.5316   0.6579   0.2222
V20     V     0.5316   0.6579   0.5556
V21     V     0.5316   0.6579   0.8889
V22     V     0.3421   0.4684   0.0556
V23     V     0.3421   0.4684   0.3889
V24     V     0.3421   0.4684   0.7222
V25     V     0.1263   0.4684   0.1111
V26     V     0.1263   0.4684   0.4444
V27     V     0.1263   0.4684   0.7778
V28     V     0.1263   0.6579   0.2778
V29     V     0.1263   0.6579   0.6111
V30     V     0.1263   0.6579   0.9444
V31     V     0.8737   0.5316   0.2778
V32     V     0.8737   0.5316   0.6111
V33     V     0.8737   0.5316   0.9444
V34     V     0.8737   0.3421   0.1111
V35     V     0.8737   0.3421   0.4444
V36     V     0.8737   0.3421   0.7778
loop_
_geom_bond_atom_site_label_1
_geom_bond_atom_site_label_2
_geom_bond_distance
_geom_bond_site_symmetry_2
_ccdc_geom_bond_type
V1     V10    10.0   .     S
V1     V3    10.0   1_554     S
V1     V2    10.0   .     S
V1     V11    10.0   .     S
V1     V5    10.0   1_565     S
V1     V28    10.0   .     S
V2     V11    10.0   .     S
V2     V3    10.0   .     S
V2     V12    10.0   .     S
V2     V6    10.0   1_565     S
V2     V29    10.0   .     S
V3     V12    10.0   .     S
V3     V1    10.0   1_556     S
V3     V10    10.0   1_556     S
V3     V4    10.0   1_566     S
V3     V30    10.0   .     S
V4     V3    10.0   1_544     S
V4     V5    10.0   .     S
V4     V6    10.0   1_554     S
V4     V7    10.0   .     S
V4     V9    10.0   1_554     S
V4     V16    10.0   .     S
V5     V1    10.0   1_545     S
V5     V6    10.0   .     S
V5     V8    10.0   .     S
V5     V7    10.0   .     S
V5     V17    10.0   .     S
V6     V2    10.0   1_545     S
V6     V4    10.0   1_556     S
V6     V9    10.0   .     S
V6     V8    10.0   .     S
V6     V18    10.0   .     S
V7     V8    10.0   .     S
V7     V9    10.0   1_554     S
V7     V10    10.0   1_545     S
V7     V34    10.0   .     S
V8     V9    10.0   .     S
V8     V11    10.0   1_545     S
V8     V35    10.0   .     S
V9     V7    10.0   1_556     S
V9     V4    10.0   1_556     S
V9     V12    10.0   1_545     S
V9     V36    10.0   .     S
V10     V3    10.0   1_554     S
V10     V7    10.0   1_565     S
V10     V12    10.0   1_554     S
V10     V11    10.0   .     S
V10     V19    10.0   .     S
V11     V8    10.0   1_565     S
V11     V12    10.0   .     S
V11     V20    10.0   .     S
V12     V9    10.0   1_565     S
V12     V10    10.0   1_556     S
V12     V21    10.0   .     S
V13     V16    10.0   .     S
V13     V15    10.0   1_554     S
V13     V14    10.0   .     S
V13     V17    10.0   .     S
V13     V19    10.0   .     S
V13     V31    10.0   .     S
V14     V17    10.0   .     S
V14     V15    10.0   .     S
V14     V18    10.0   .     S
V14     V20    10.0   .     S
V14     V32    10.0   .     S
V15     V18    10.0   .     S
V15     V13    10.0   1_556     S
V15     V16    10.0   1_556     S
V15     V21    10.0   .     S
V15     V33    10.0   .     S
V16     V17    10.0   .     S
V16     V18    10.0   1_554     S
V16     V15    10.0   1_554     S
V16     V22    10.0   .     S
V17     V18    10.0   .     S
V17     V23    10.0   .     S
V18     V16    10.0   1_556     S
V18     V24    10.0   .     S
V19     V22    10.0   .     S
V19     V23    10.0   .     S
V19     V21    10.0   1_554     S
V19     V20    10.0   .     S
V20     V23    10.0   .     S
V20     V24    10.0   .     S
V20     V21    10.0   .     S
V21     V24    10.0   .     S
V21     V22    10.0   1_556     S
V21     V19    10.0   1_556     S
V22     V21    10.0   1_554     S
V22     V23    10.0   .     S
V22     V24    10.0   1_554     S
V22     V25    10.0   .     S
V23     V24    10.0   .     S
V23     V26    10.0   .     S
V24     V22    10.0   1_556     S
V24     V27    10.0   .     S
V25     V26    10.0   .     S
V25     V27    10.0   1_554     S
V25     V28    10.0   .     S
V25     V30    10.0   1_554     S
V25     V34    10.0   1_455     S
V26     V27    10.0   .     S
V26     V29    10.0   .     S
V26     V28    10.0   .     S
V26     V35    10.0   1_455     S
V27     V25    10.0   1_556     S
V27     V30    10.0   .     S
V27     V29    10.0   .     S
V27     V36    10.0   1_455     S
V28     V30    10.0   1_554     S
V28     V29    10.0   .     S
V28     V31    10.0   1_455     S
V29     V30    10.0   .     S
V29     V32    10.0   1_455     S
V30     V25    10.0   1_556     S
V30     V28    10.0   1_556     S
V30     V33    10.0   1_455     S
V31     V28    10.0   1_655     S
V31     V34    10.0   .     S
V31     V35    10.0   .     S
V31     V33    10.0   1_554     S
V31     V32    10.0   .     S
V32     V29    10.0   1_655     S
V32     V35    10.0   .     S
V32     V36    10.0   .     S
V32     V33    10.0   .     S
V33     V30    10.0   1_655     S
V33     V36    10.0   .     S
V33     V34    10.0   1_556     S
V33     V31    10.0   1_556     S
V34     V33    10.0   1_554     S
V34     V35    10.0   .     S
V34     V36    10.0   1_554     S
V34     V25    10.0   1_655     S
V35     V36    10.0   .     S
V35     V26    10.0   1_655     S
V36     V34    10.0   1_556     S
V36     V27    10.0   1_655     S
