data_wkm
_audit_creation_date              2019-12-31
_audit_creation_method            'Pymatgen'
_symmetry_space_group_name_H-M    'P1'
_symmetry_Int_Tables_number       1
loop_
_symmetry_equiv_pos_as_xyz
  x,y,z
_cell_length_a                    43.8563
_cell_length_b                    43.8563
_cell_length_c                    29.9997
_cell_angle_alpha                 90.0
_cell_angle_beta                 90.0
_cell_angle_gamma                 120.0
loop_
_atom_site_label
_atom_site_type_symbol
_atom_site_fract_x
_atom_site_fract_y
_atom_site_fract_z
V1     V     0.443   0.114   0.25
V2     V     0.443   0.114   0.5833
V3     V     0.443   0.114   0.9167
V4     V     0.671   0.114   0.25
V5     V     0.671   0.114   0.5833
V6     V     0.671   0.114   0.9167
V7     V     0.557   0.886   0.0833
V8     V     0.557   0.886   0.4167
V9     V     0.557   0.886   0.75
V10     V     0.329   0.886   0.0833
V11     V     0.329   0.886   0.4167
V12     V     0.329   0.886   0.75
V13     V     0.671   0.557   0.1389
V14     V     0.671   0.557   0.4722
V15     V     0.671   0.557   0.8056
V16     V     0.443   0.329   0.1389
V17     V     0.443   0.329   0.4722
V18     V     0.443   0.329   0.8056
V19     V     0.329   0.443   0.3056
V20     V     0.329   0.443   0.6389
V21     V     0.329   0.443   0.9722
V22     V     0.557   0.671   0.3056
V23     V     0.557   0.671   0.6389
V24     V     0.557   0.671   0.9722
V25     V     0.886   0.329   0.0278
V26     V     0.886   0.329   0.3611
V27     V     0.886   0.329   0.6944
V28     V     0.886   0.557   0.0278
V29     V     0.886   0.557   0.3611
V30     V     0.886   0.557   0.6944
V31     V     0.114   0.671   0.1944
V32     V     0.114   0.671   0.5278
V33     V     0.114   0.671   0.8611
V34     V     0.114   0.443   0.1944
V35     V     0.114   0.443   0.5278
V36     V     0.114   0.443   0.8611
loop_
_geom_bond_atom_site_label_1
_geom_bond_atom_site_label_2
_geom_bond_distance
_geom_bond_site_symmetry_2
_ccdc_geom_bond_type
V1     V4    10.0   .     S
V1     V3    10.0   1_554     S
V1     V2    10.0   .     S
V1     V11    10.0   1_545     S
V1     V10    10.0   1_545     S
V1     V16    10.0   .     S
V2     V5    10.0   .     S
V2     V3    10.0   .     S
V2     V12    10.0   1_545     S
V2     V11    10.0   1_545     S
V2     V17    10.0   .     S
V3     V6    10.0   .     S
V3     V1    10.0   1_556     S
V3     V10    10.0   1_546     S
V3     V12    10.0   1_545     S
V3     V18    10.0   .     S
V4     V6    10.0   1_554     S
V4     V5    10.0   .     S
V4     V8    10.0   1_545     S
V4     V7    10.0   1_545     S
V4     V26    10.0   .     S
V5     V6    10.0   .     S
V5     V9    10.0   1_545     S
V5     V8    10.0   1_545     S
V5     V27    10.0   .     S
V6     V4    10.0   1_556     S
V6     V7    10.0   1_546     S
V6     V9    10.0   1_545     S
V6     V25    10.0   1_556     S
V7     V6    10.0   1_564     S
V7     V4    10.0   1_565     S
V7     V10    10.0   .     S
V7     V8    10.0   .     S
V7     V9    10.0   1_554     S
V7     V24    10.0   1_554     S
V8     V4    10.0   1_565     S
V8     V5    10.0   1_565     S
V8     V11    10.0   .     S
V8     V9    10.0   .     S
V8     V22    10.0   .     S
V9     V5    10.0   1_565     S
V9     V6    10.0   1_565     S
V9     V12    10.0   .     S
V9     V7    10.0   1_556     S
V9     V23    10.0   .     S
V10     V3    10.0   1_564     S
V10     V1    10.0   1_565     S
V10     V11    10.0   .     S
V10     V12    10.0   1_554     S
V10     V31    10.0   .     S
V11     V1    10.0   1_565     S
V11     V2    10.0   1_565     S
V11     V12    10.0   .     S
V11     V32    10.0   .     S
V12     V2    10.0   1_565     S
V12     V3    10.0   1_565     S
V12     V10    10.0   1_556     S
V12     V33    10.0   .     S
V13     V16    10.0   .     S
V13     V14    10.0   .     S
V13     V15    10.0   1_554     S
V13     V24    10.0   1_554     S
V13     V22    10.0   .     S
V13     V28    10.0   .     S
V14     V17    10.0   .     S
V14     V15    10.0   .     S
V14     V22    10.0   .     S
V14     V23    10.0   .     S
V14     V29    10.0   .     S
V15     V18    10.0   .     S
V15     V13    10.0   1_556     S
V15     V23    10.0   .     S
V15     V24    10.0   .     S
V15     V30    10.0   .     S
V16     V17    10.0   .     S
V16     V18    10.0   1_554     S
V16     V19    10.0   .     S
V16     V21    10.0   1_554     S
V17     V18    10.0   .     S
V17     V20    10.0   .     S
V17     V19    10.0   .     S
V18     V16    10.0   1_556     S
V18     V21    10.0   .     S
V18     V20    10.0   .     S
V19     V22    10.0   .     S
V19     V21    10.0   1_554     S
V19     V20    10.0   .     S
V19     V34    10.0   .     S
V20     V23    10.0   .     S
V20     V21    10.0   .     S
V20     V35    10.0   .     S
V21     V16    10.0   1_556     S
V21     V24    10.0   .     S
V21     V19    10.0   1_556     S
V21     V36    10.0   .     S
V22     V24    10.0   1_554     S
V22     V23    10.0   .     S
V23     V24    10.0   .     S
V24     V13    10.0   1_556     S
V24     V22    10.0   1_556     S
V24     V7    10.0   1_556     S
V25     V6    10.0   1_554     S
V25     V28    10.0   .     S
V25     V26    10.0   .     S
V25     V27    10.0   1_554     S
V25     V36    10.0   1_654     S
V25     V34    10.0   1_655     S
V26     V29    10.0   .     S
V26     V27    10.0   .     S
V26     V34    10.0   1_655     S
V26     V35    10.0   1_655     S
V27     V30    10.0   .     S
V27     V25    10.0   1_556     S
V27     V35    10.0   1_655     S
V27     V36    10.0   1_655     S
V28     V31    10.0   1_655     S
V28     V33    10.0   1_654     S
V28     V29    10.0   .     S
V28     V30    10.0   1_554     S
V29     V32    10.0   1_655     S
V29     V31    10.0   1_655     S
V29     V30    10.0   .     S
V30     V33    10.0   1_655     S
V30     V32    10.0   1_655     S
V30     V28    10.0   1_556     S
V31     V28    10.0   1_455     S
V31     V29    10.0   1_455     S
V31     V34    10.0   .     S
V31     V33    10.0   1_554     S
V31     V32    10.0   .     S
V32     V29    10.0   1_455     S
V32     V30    10.0   1_455     S
V32     V35    10.0   .     S
V32     V33    10.0   .     S
V33     V30    10.0   1_455     S
V33     V28    10.0   1_456     S
V33     V36    10.0   .     S
V33     V31    10.0   1_556     S
V34     V36    10.0   1_554     S
V34     V35    10.0   .     S
V34     V26    10.0   1_455     S
V34     V25    10.0   1_455     S
V35     V36    10.0   .     S
V35     V27    10.0   1_455     S
V35     V26    10.0   1_455     S
V36     V34    10.0   1_556     S
V36     V25    10.0   1_456     S
V36     V27    10.0   1_455     S
