data_wkn
_audit_creation_date              2019-12-31
_audit_creation_method            'Pymatgen'
_symmetry_space_group_name_H-M    'P1'
_symmetry_Int_Tables_number       1
loop_
_symmetry_equiv_pos_as_xyz
  x,y,z
_cell_length_a                    43.5106
_cell_length_b                    43.5106
_cell_length_c                    30.0
_cell_angle_alpha                 90.0
_cell_angle_beta                 90.0
_cell_angle_gamma                 120.0
loop_
_atom_site_label
_atom_site_type_symbol
_atom_site_fract_x
_atom_site_fract_y
_atom_site_fract_z
V1     V     0.6759   0.1251   0.2222
V2     V     0.6759   0.1251   0.5556
V3     V     0.6759   0.1251   0.8889
V4     V     0.5508   0.8749   0.1111
V5     V     0.5508   0.8749   0.4444
V6     V     0.5508   0.8749   0.7778
V7     V     0.5508   0.6759   0.2778
V8     V     0.5508   0.6759   0.6111
V9     V     0.5508   0.6759   0.9444
V10     V     0.6759   0.5508   0.1667
V11     V     0.6759   0.5508   0.5
V12     V     0.6759   0.5508   0.8333
V13     V     0.8749   0.5508   0.3333
V14     V     0.8749   0.5508   0.6667
V15     V     0.8749   0.5508   1.0
V16     V     0.1251   0.6759   0.2222
V17     V     0.1251   0.6759   0.5556
V18     V     0.1251   0.6759   0.8889
V19     V     0.4492   0.1251   0.2778
V20     V     0.4492   0.1251   0.6111
V21     V     0.4492   0.1251   0.9444
V22     V     0.3241   0.8749   0.0556
V23     V     0.3241   0.8749   0.3889
V24     V     0.3241   0.8749   0.7222
V25     V     0.4492   0.3241   0.1111
V26     V     0.4492   0.3241   0.4444
V27     V     0.4492   0.3241   0.7778
V28     V     0.3241   0.4492   0.0
V29     V     0.3241   0.4492   0.3333
V30     V     0.3241   0.4492   0.6667
V31     V     0.1251   0.4492   0.1667
V32     V     0.1251   0.4492   0.5
V33     V     0.1251   0.4492   0.8333
V34     V     0.8749   0.3241   0.0556
V35     V     0.8749   0.3241   0.3889
V36     V     0.8749   0.3241   0.7222
loop_
_geom_bond_atom_site_label_1
_geom_bond_atom_site_label_2
_geom_bond_distance
_geom_bond_site_symmetry_2
_ccdc_geom_bond_type
V1     V35    10.0   .     S
V1     V3    10.0   1_554     S
V1     V2    10.0   .     S
V1     V4    10.0   1_545     S
V1     V34    10.0   .     S
V1     V19    10.0   .     S
V2     V36    10.0   .     S
V2     V3    10.0   .     S
V2     V5    10.0   1_545     S
V2     V35    10.0   .     S
V2     V20    10.0   .     S
V3     V34    10.0   1_556     S
V3     V1    10.0   1_556     S
V3     V6    10.0   1_545     S
V3     V36    10.0   .     S
V3     V21    10.0   .     S
V4     V9    10.0   1_554     S
V4     V5    10.0   .     S
V4     V6    10.0   1_554     S
V4     V1    10.0   1_565     S
V4     V7    10.0   .     S
V4     V22    10.0   .     S
V5     V7    10.0   .     S
V5     V6    10.0   .     S
V5     V2    10.0   1_565     S
V5     V8    10.0   .     S
V5     V23    10.0   .     S
V6     V8    10.0   .     S
V6     V4    10.0   1_556     S
V6     V3    10.0   1_565     S
V6     V9    10.0   .     S
V6     V24    10.0   .     S
V7     V9    10.0   1_554     S
V7     V8    10.0   .     S
V7     V10    10.0   .     S
V7     V29    10.0   .     S
V8     V9    10.0   .     S
V8     V11    10.0   .     S
V8     V30    10.0   .     S
V9     V4    10.0   1_556     S
V9     V7    10.0   1_556     S
V9     V12    10.0   .     S
V9     V28    10.0   1_556     S
V10     V15    10.0   1_554     S
V10     V12    10.0   1_554     S
V10     V11    10.0   .     S
V10     V13    10.0   .     S
V10     V25    10.0   .     S
V11     V13    10.0   .     S
V11     V12    10.0   .     S
V11     V14    10.0   .     S
V11     V26    10.0   .     S
V12     V14    10.0   .     S
V12     V10    10.0   1_556     S
V12     V15    10.0   .     S
V12     V27    10.0   .     S
V13     V15    10.0   1_554     S
V13     V14    10.0   .     S
V13     V16    10.0   1_655     S
V13     V35    10.0   .     S
V14     V15    10.0   .     S
V14     V17    10.0   1_655     S
V14     V36    10.0   .     S
V15     V10    10.0   1_556     S
V15     V13    10.0   1_556     S
V15     V18    10.0   1_655     S
V15     V34    10.0   1_556     S
V16     V22    10.0   .     S
V16     V18    10.0   1_554     S
V16     V17    10.0   .     S
V16     V13    10.0   1_455     S
V16     V23    10.0   .     S
V16     V31    10.0   .     S
V17     V23    10.0   .     S
V17     V18    10.0   .     S
V17     V14    10.0   1_455     S
V17     V24    10.0   .     S
V17     V32    10.0   .     S
V18     V24    10.0   .     S
V18     V16    10.0   1_556     S
V18     V15    10.0   1_455     S
V18     V22    10.0   1_556     S
V18     V33    10.0   .     S
V19     V25    10.0   .     S
V19     V21    10.0   1_554     S
V19     V20    10.0   .     S
V19     V23    10.0   1_545     S
V19     V26    10.0   .     S
V20     V26    10.0   .     S
V20     V21    10.0   .     S
V20     V24    10.0   1_545     S
V20     V27    10.0   .     S
V21     V27    10.0   .     S
V21     V19    10.0   1_556     S
V21     V22    10.0   1_546     S
V21     V25    10.0   1_556     S
V22     V23    10.0   .     S
V22     V24    10.0   1_554     S
V22     V21    10.0   1_564     S
V22     V18    10.0   1_554     S
V23     V24    10.0   .     S
V23     V19    10.0   1_565     S
V24     V22    10.0   1_556     S
V24     V20    10.0   1_565     S
V25     V26    10.0   .     S
V25     V27    10.0   1_554     S
V25     V21    10.0   1_554     S
V25     V28    10.0   .     S
V26     V27    10.0   .     S
V26     V29    10.0   .     S
V27     V25    10.0   1_556     S
V27     V30    10.0   .     S
V28     V33    10.0   1_554     S
V28     V29    10.0   .     S
V28     V30    10.0   1_554     S
V28     V31    10.0   .     S
V28     V9    10.0   1_554     S
V29     V31    10.0   .     S
V29     V30    10.0   .     S
V29     V32    10.0   .     S
V30     V32    10.0   .     S
V30     V28    10.0   1_556     S
V30     V33    10.0   .     S
V31     V32    10.0   .     S
V31     V33    10.0   1_554     S
V31     V34    10.0   1_455     S
V32     V33    10.0   .     S
V32     V35    10.0   1_455     S
V33     V28    10.0   1_556     S
V33     V31    10.0   1_556     S
V33     V36    10.0   1_455     S
V34     V3    10.0   1_554     S
V34     V35    10.0   .     S
V34     V36    10.0   1_554     S
V34     V31    10.0   1_655     S
V34     V15    10.0   1_554     S
V35     V36    10.0   .     S
V35     V32    10.0   1_655     S
V36     V34    10.0   1_556     S
V36     V33    10.0   1_655     S
