data_wkp
_audit_creation_date              2019-12-31
_audit_creation_method            'Pymatgen'
_symmetry_space_group_name_H-M    'P1'
_symmetry_Int_Tables_number       1
loop_
_symmetry_equiv_pos_as_xyz
  x,y,z
_cell_length_a                    26.7742
_cell_length_b                    26.7742
_cell_length_c                    39.1142
_cell_angle_alpha                 90.0
_cell_angle_beta                 90.0
_cell_angle_gamma                 120.0
loop_
_atom_site_label
_atom_site_type_symbol
_atom_site_fract_x
_atom_site_fract_y
_atom_site_fract_z
V1     V     0.1635   0.7583   0.3333
V2     V     0.1635   0.7583   0.8333
V3     V     0.7583   0.5948   0.25
V4     V     0.7583   0.5948   0.75
V5     V     0.5948   0.8365   0.1667
V6     V     0.5948   0.8365   0.6667
V7     V     0.5948   0.7583   0.4167
V8     V     0.5948   0.7583   0.9167
V9     V     0.2417   0.4052   0.0
V10     V     0.2417   0.4052   0.5
V11     V     0.8365   0.2417   0.0833
V12     V     0.8365   0.2417   0.5833
V13     V     0.4052   0.1635   0.4167
V14     V     0.4052   0.1635   0.9167
V15     V     0.7583   0.1635   0.3333
V16     V     0.7583   0.1635   0.8333
V17     V     0.2417   0.8365   0.0833
V18     V     0.2417   0.8365   0.5833
V19     V     0.1635   0.4052   0.25
V20     V     0.1635   0.4052   0.75
V21     V     0.8365   0.5948   0.0
V22     V     0.8365   0.5948   0.5
V23     V     0.4052   0.2417   0.1667
V24     V     0.4052   0.2417   0.6667
loop_
_geom_bond_atom_site_label_1
_geom_bond_atom_site_label_2
_geom_bond_distance
_geom_bond_site_symmetry_2
_ccdc_geom_bond_type
V1     V17    10.0   .     S
V1     V3    10.0   1_455     S
V1     V13    10.0   1_565     S
V1     V18    10.0   .     S
V1     V22    10.0   1_455     S
V1     V19    10.0   .     S
V2     V18    10.0   .     S
V2     V4    10.0   1_455     S
V2     V14    10.0   1_565     S
V2     V17    10.0   1_556     S
V2     V21    10.0   1_456     S
V2     V20    10.0   .     S
V3     V1    10.0   1_655     S
V3     V5    10.0   .     S
V3     V7    10.0   .     S
V3     V22    10.0   .     S
V3     V21    10.0   .     S
V3     V23    10.0   .     S
V4     V2    10.0   1_655     S
V4     V6    10.0   .     S
V4     V8    10.0   .     S
V4     V21    10.0   1_556     S
V4     V22    10.0   .     S
V4     V24    10.0   .     S
V5     V11    10.0   1_565     S
V5     V8    10.0   1_554     S
V5     V15    10.0   1_565     S
V5     V7    10.0   .     S
V5     V17    10.0   .     S
V6     V12    10.0   1_565     S
V6     V7    10.0   .     S
V6     V16    10.0   1_565     S
V6     V8    10.0   .     S
V6     V18    10.0   .     S
V7     V22    10.0   .     S
V7     V15    10.0   1_565     S
V7     V10    10.0   .     S
V8     V5    10.0   1_556     S
V8     V21    10.0   1_556     S
V8     V16    10.0   1_565     S
V8     V9    10.0   1_556     S
V9     V14    10.0   1_554     S
V9     V11    10.0   1_455     S
V9     V20    10.0   1_554     S
V9     V19    10.0   .     S
V9     V23    10.0   .     S
V9     V8    10.0   1_554     S
V10     V13    10.0   .     S
V10     V12    10.0   1_455     S
V10     V19    10.0   .     S
V10     V20    10.0   .     S
V10     V24    10.0   .     S
V11     V5    10.0   1_545     S
V11     V16    10.0   1_554     S
V11     V9    10.0   1_655     S
V11     V15    10.0   .     S
V11     V19    10.0   1_655     S
V11     V21    10.0   .     S
V12     V6    10.0   1_545     S
V12     V15    10.0   .     S
V12     V10    10.0   1_655     S
V12     V16    10.0   .     S
V12     V20    10.0   1_655     S
V12     V22    10.0   .     S
V13     V23    10.0   .     S
V13     V1    10.0   1_545     S
V13     V18    10.0   1_545     S
V13     V24    10.0   .     S
V13     V15    10.0   .     S
V14     V24    10.0   .     S
V14     V9    10.0   1_556     S
V14     V2    10.0   1_545     S
V14     V17    10.0   1_546     S
V14     V23    10.0   1_556     S
V14     V16    10.0   .     S
V15     V7    10.0   1_545     S
V15     V19    10.0   1_655     S
V15     V5    10.0   1_545     S
V16     V11    10.0   1_556     S
V16     V8    10.0   1_545     S
V16     V20    10.0   1_655     S
V16     V6    10.0   1_545     S
V17     V23    10.0   1_565     S
V17     V21    10.0   1_455     S
V17     V2    10.0   1_554     S
V17     V14    10.0   1_564     S
V18     V24    10.0   1_565     S
V18     V22    10.0   1_455     S
V18     V13    10.0   1_565     S
V19     V15    10.0   1_455     S
V19     V23    10.0   .     S
V19     V11    10.0   1_455     S
V20     V9    10.0   1_556     S
V20     V16    10.0   1_455     S
V20     V24    10.0   .     S
V20     V12    10.0   1_455     S
V21     V8    10.0   1_554     S
V21     V4    10.0   1_554     S
V21     V17    10.0   1_655     S
V21     V2    10.0   1_654     S
V22     V18    10.0   1_655     S
V22     V1    10.0   1_655     S
V23     V17    10.0   1_545     S
V23     V14    10.0   1_554     S
V24     V18    10.0   1_545     S
