data_wkt
_audit_creation_date              2019-12-31
_audit_creation_method            'Pymatgen'
_symmetry_space_group_name_H-M    'P1'
_symmetry_Int_Tables_number       1
loop_
_symmetry_equiv_pos_as_xyz
  x,y,z
_cell_length_a                    37.394
_cell_length_b                    37.394
_cell_length_c                    38.6965
_cell_angle_alpha                 90.0
_cell_angle_beta                 90.0
_cell_angle_gamma                 120.0
loop_
_atom_site_label
_atom_site_type_symbol
_atom_site_fract_x
_atom_site_fract_y
_atom_site_fract_z
V1     V     0.3133   0.0316   0.6292
V2     V     0.3133   0.5316   0.6292
V3     V     0.8133   0.0316   0.6292
V4     V     0.8133   0.5316   0.6292
V5     V     0.3133   0.2816   0.5375
V6     V     0.3133   0.7817   0.5375
V7     V     0.8133   0.2816   0.5375
V8     V     0.8133   0.7817   0.5375
V9     V     0.2816   0.3133   0.7959
V10     V     0.2816   0.8133   0.7959
V11     V     0.7817   0.3133   0.7959
V12     V     0.7817   0.8133   0.7959
V13     V     0.0317   0.3133   0.7041
V14     V     0.0317   0.8133   0.7041
V15     V     0.5316   0.3133   0.7041
V16     V     0.5316   0.8133   0.7041
V17     V     0.4684   0.2816   0.9625
V18     V     0.4684   0.7817   0.9625
V19     V     0.9684   0.2816   0.9625
V20     V     0.9684   0.7817   0.9625
V21     V     0.2183   0.0316   0.8708
V22     V     0.2183   0.5316   0.8708
V23     V     0.7183   0.0316   0.8708
V24     V     0.7183   0.5316   0.8708
V25     V     0.0317   0.2183   0.4625
V26     V     0.0316   0.7183   0.4625
V27     V     0.5316   0.2183   0.4625
V28     V     0.5316   0.7183   0.4625
V29     V     0.2816   0.4683   0.3708
V30     V     0.2816   0.9684   0.3708
V31     V     0.7816   0.4683   0.3708
V32     V     0.7816   0.9684   0.3708
V33     V     0.1867   0.4683   0.1292
V34     V     0.1867   0.9684   0.1292
V35     V     0.6867   0.4683   0.1292
V36     V     0.6867   0.9684   0.1292
V37     V     0.1867   0.2183   0.0375
V38     V     0.1867   0.7183   0.0375
V39     V     0.6867   0.2183   0.0375
V40     V     0.6867   0.7183   0.0375
V41     V     0.2183   0.1867   0.2959
V42     V     0.2183   0.6867   0.2959
V43     V     0.7183   0.1867   0.2959
V44     V     0.7183   0.6867   0.2959
V45     V     0.4684   0.1867   0.2041
V46     V     0.4684   0.6867   0.2041
V47     V     0.9684   0.1867   0.2041
V48     V     0.9684   0.6867   0.2041
loop_
_geom_bond_atom_site_label_1
_geom_bond_atom_site_label_2
_geom_bond_distance
_geom_bond_site_symmetry_2
_ccdc_geom_bond_type
V1     V27    10.0   .     S
V1     V15    10.0   .     S
V1     V5    10.0   .     S
V1     V6    10.0   1_545     S
V1     V10    10.0   1_545     S
V1     V21    10.0   .     S
V1     V14    10.0   1_545     S
V2     V28    10.0   .     S
V2     V16    10.0   .     S
V2     V6    10.0   .     S
V2     V5    10.0   .     S
V2     V9    10.0   .     S
V2     V22    10.0   .     S
V2     V13    10.0   .     S
V3     V25    10.0   1_655     S
V3     V13    10.0   1_655     S
V3     V7    10.0   .     S
V3     V8    10.0   1_545     S
V3     V12    10.0   1_545     S
V3     V23    10.0   .     S
V3     V16    10.0   1_545     S
V4     V26    10.0   1_655     S
V4     V14    10.0   1_655     S
V4     V8    10.0   .     S
V4     V7    10.0   .     S
V4     V11    10.0   .     S
V4     V24    10.0   .     S
V4     V15    10.0   .     S
V5     V15    10.0   .     S
V5     V27    10.0   .     S
V5     V25    10.0   .     S
V5     V41    10.0   .     S
V5     V29    10.0   .     S
V6     V16    10.0   .     S
V6     V28    10.0   .     S
V6     V1    10.0   1_565     S
V6     V26    10.0   .     S
V6     V42    10.0   .     S
V6     V30    10.0   .     S
V7     V13    10.0   1_655     S
V7     V25    10.0   1_655     S
V7     V27    10.0   .     S
V7     V43    10.0   .     S
V7     V31    10.0   .     S
V8     V14    10.0   1_655     S
V8     V26    10.0   1_655     S
V8     V3    10.0   1_565     S
V8     V28    10.0   .     S
V8     V44    10.0   .     S
V8     V32    10.0   .     S
V9     V22    10.0   .     S
V9     V13    10.0   .     S
V9     V15    10.0   .     S
V9     V17    10.0   .     S
V9     V37    10.0   1_556     S
V9     V21    10.0   .     S
V10     V1    10.0   1_565     S
V10     V21    10.0   1_565     S
V10     V14    10.0   .     S
V10     V16    10.0   .     S
V10     V18    10.0   .     S
V10     V38    10.0   1_556     S
V10     V22    10.0   .     S
V11     V24    10.0   .     S
V11     V15    10.0   .     S
V11     V13    10.0   1_655     S
V11     V19    10.0   .     S
V11     V39    10.0   1_556     S
V11     V23    10.0   .     S
V12     V3    10.0   1_565     S
V12     V23    10.0   1_565     S
V12     V16    10.0   .     S
V12     V14    10.0   1_655     S
V12     V20    10.0   .     S
V12     V40    10.0   1_556     S
V12     V24    10.0   .     S
V13     V3    10.0   1_455     S
V13     V25    10.0   .     S
V13     V7    10.0   1_455     S
V13     V22    10.0   .     S
V13     V11    10.0   1_455     S
V14     V4    10.0   1_455     S
V14     V26    10.0   .     S
V14     V8    10.0   1_455     S
V14     V21    10.0   1_565     S
V14     V1    10.0   1_565     S
V14     V12    10.0   1_455     S
V15     V27    10.0   .     S
V15     V24    10.0   .     S
V16     V28    10.0   .     S
V16     V23    10.0   1_565     S
V16     V3    10.0   1_565     S
V17     V37    10.0   1_556     S
V17     V21    10.0   .     S
V17     V24    10.0   .     S
V17     V35    10.0   1_556     S
V17     V45    10.0   1_556     S
V17     V39    10.0   1_556     S
V18     V38    10.0   1_556     S
V18     V22    10.0   .     S
V18     V23    10.0   1_565     S
V18     V36    10.0   1_556     S
V18     V46    10.0   1_556     S
V18     V40    10.0   1_556     S
V19     V39    10.0   1_556     S
V19     V23    10.0   .     S
V19     V22    10.0   1_655     S
V19     V33    10.0   1_656     S
V19     V47    10.0   1_556     S
V19     V37    10.0   1_656     S
V20     V40    10.0   1_556     S
V20     V24    10.0   .     S
V20     V21    10.0   1_665     S
V20     V34    10.0   1_656     S
V20     V48    10.0   1_556     S
V20     V38    10.0   1_656     S
V21     V10    10.0   1_545     S
V21     V14    10.0   1_545     S
V21     V37    10.0   1_556     S
V21     V20    10.0   1_445     S
V22     V38    10.0   1_556     S
V22     V19    10.0   1_455     S
V23     V12    10.0   1_545     S
V23     V16    10.0   1_545     S
V23     V39    10.0   1_556     S
V23     V18    10.0   1_545     S
V24     V40    10.0   1_556     S
V25     V3    10.0   1_455     S
V25     V7    10.0   1_455     S
V25     V41    10.0   .     S
V25     V29    10.0   .     S
V25     V32    10.0   1_445     S
V26     V4    10.0   1_455     S
V26     V8    10.0   1_455     S
V26     V42    10.0   .     S
V26     V30    10.0   .     S
V26     V31    10.0   1_455     S
V27     V43    10.0   .     S
V27     V31    10.0   .     S
V27     V30    10.0   1_545     S
V28     V44    10.0   .     S
V28     V32    10.0   .     S
V28     V29    10.0   .     S
V29     V41    10.0   .     S
V29     V42    10.0   .     S
V29     V33    10.0   .     S
V29     V46    10.0   .     S
V30     V42    10.0   .     S
V30     V27    10.0   1_565     S
V30     V41    10.0   1_565     S
V30     V34    10.0   .     S
V30     V45    10.0   1_565     S
V31     V43    10.0   .     S
V31     V26    10.0   1_655     S
V31     V44    10.0   .     S
V31     V35    10.0   .     S
V31     V48    10.0   .     S
V32     V44    10.0   .     S
V32     V25    10.0   1_665     S
V32     V43    10.0   1_565     S
V32     V36    10.0   .     S
V32     V47    10.0   1_565     S
V33     V19    10.0   1_454     S
V33     V47    10.0   1_455     S
V33     V37    10.0   .     S
V33     V38    10.0   .     S
V33     V42    10.0   .     S
V33     V46    10.0   .     S
V34     V20    10.0   1_454     S
V34     V48    10.0   1_455     S
V34     V38    10.0   .     S
V34     V37    10.0   1_565     S
V34     V41    10.0   1_565     S
V34     V45    10.0   1_565     S
V35     V17    10.0   1_554     S
V35     V45    10.0   .     S
V35     V39    10.0   .     S
V35     V40    10.0   .     S
V35     V44    10.0   .     S
V35     V48    10.0   .     S
V36     V18    10.0   1_554     S
V36     V46    10.0   .     S
V36     V40    10.0   .     S
V36     V39    10.0   1_565     S
V36     V43    10.0   1_565     S
V36     V47    10.0   1_565     S
V37     V17    10.0   1_554     S
V37     V9    10.0   1_554     S
V37     V21    10.0   1_554     S
V37     V47    10.0   1_455     S
V37     V19    10.0   1_454     S
V37     V34    10.0   1_545     S
V38     V18    10.0   1_554     S
V38     V10    10.0   1_554     S
V38     V22    10.0   1_554     S
V38     V48    10.0   1_455     S
V38     V20    10.0   1_454     S
V39     V19    10.0   1_554     S
V39     V11    10.0   1_554     S
V39     V23    10.0   1_554     S
V39     V45    10.0   .     S
V39     V17    10.0   1_554     S
V39     V36    10.0   1_545     S
V40     V20    10.0   1_554     S
V40     V12    10.0   1_554     S
V40     V24    10.0   1_554     S
V40     V46    10.0   .     S
V40     V18    10.0   1_554     S
V41     V34    10.0   1_545     S
V41     V30    10.0   1_545     S
V41     V45    10.0   .     S
V41     V47    10.0   1_455     S
V42     V46    10.0   .     S
V42     V48    10.0   1_455     S
V43     V36    10.0   1_545     S
V43     V32    10.0   1_545     S
V43     V47    10.0   .     S
V43     V45    10.0   .     S
V44     V48    10.0   .     S
V44     V46    10.0   .     S
V45     V17    10.0   1_554     S
V45     V30    10.0   1_545     S
V45     V34    10.0   1_545     S
V46     V18    10.0   1_554     S
V47     V33    10.0   1_655     S
V47     V19    10.0   1_554     S
V47     V37    10.0   1_655     S
V47     V32    10.0   1_545     S
V47     V36    10.0   1_545     S
V47     V41    10.0   1_655     S
V48     V34    10.0   1_655     S
V48     V20    10.0   1_554     S
V48     V38    10.0   1_655     S
V48     V42    10.0   1_655     S
