data_wku
_audit_creation_date              2019-12-31
_audit_creation_method            'Pymatgen'
_symmetry_space_group_name_H-M    'P1'
_symmetry_Int_Tables_number       1
loop_
_symmetry_equiv_pos_as_xyz
  x,y,z
_cell_length_a                    32.915
_cell_length_b                    32.915
_cell_length_c                    52.7966
_cell_angle_alpha                 90.0
_cell_angle_beta                 90.0
_cell_angle_gamma                 120.0
loop_
_atom_site_label
_atom_site_type_symbol
_atom_site_fract_x
_atom_site_fract_y
_atom_site_fract_z
V1     V     0.1667   0.0833   0.3038
V2     V     0.1667   0.5833   0.3038
V3     V     0.6667   0.0833   0.3038
V4     V     0.6667   0.5833   0.3038
V5     V     0.4167   0.0833   0.1962
V6     V     0.4167   0.5833   0.1962
V7     V     0.9167   0.0833   0.1962
V8     V     0.9167   0.5833   0.1962
V9     V     0.0833   0.1667   0.0295
V10     V     0.0833   0.6667   0.0295
V11     V     0.5833   0.1667   0.0295
V12     V     0.5833   0.6667   0.0295
V13     V     0.0833   0.4167   0.1371
V14     V     0.0833   0.9167   0.1371
V15     V     0.5833   0.4167   0.1371
V16     V     0.5833   0.9167   0.1371
V17     V     0.4167   0.3333   0.9705
V18     V     0.4167   0.8333   0.9705
V19     V     0.9167   0.3333   0.9705
V20     V     0.9167   0.8333   0.9705
V21     V     0.1667   0.0833   0.8629
V22     V     0.1667   0.5833   0.8629
V23     V     0.6667   0.0833   0.8629
V24     V     0.6667   0.5833   0.8629
V25     V     0.4167   0.0833   0.6371
V26     V     0.4167   0.5833   0.6371
V27     V     0.9167   0.0833   0.6371
V28     V     0.9167   0.5833   0.6371
V29     V     0.4167   0.3333   0.5295
V30     V     0.4167   0.8333   0.5295
V31     V     0.9167   0.3333   0.5295
V32     V     0.9167   0.8333   0.5295
V33     V     0.0833   0.4167   0.6962
V34     V     0.0833   0.9167   0.6962
V35     V     0.5833   0.4167   0.6962
V36     V     0.5833   0.9167   0.6962
V37     V     0.3333   0.4167   0.8038
V38     V     0.3333   0.9167   0.8038
V39     V     0.8333   0.4167   0.8038
V40     V     0.8333   0.9167   0.8038
V41     V     0.0833   0.1667   0.4705
V42     V     0.0833   0.6667   0.4705
V43     V     0.5833   0.1667   0.4705
V44     V     0.5833   0.6667   0.4705
V45     V     0.3333   0.4167   0.3629
V46     V     0.3333   0.9167   0.3629
V47     V     0.8333   0.4167   0.3629
V48     V     0.8333   0.9167   0.3629
loop_
_geom_bond_atom_site_label_1
_geom_bond_atom_site_label_2
_geom_bond_distance
_geom_bond_site_symmetry_2
_ccdc_geom_bond_type
V1     V5    10.0   .     S
V1     V46    10.0   1_545     S
V1     V41    10.0   .     S
V1     V14    10.0   1_545     S
V1     V7    10.0   1_455     S
V1     V48    10.0   1_445     S
V1     V45    10.0   .     S
V2     V6    10.0   .     S
V2     V45    10.0   .     S
V2     V42    10.0   .     S
V2     V13    10.0   .     S
V2     V8    10.0   1_455     S
V2     V47    10.0   1_455     S
V2     V46    10.0   .     S
V3     V7    10.0   .     S
V3     V48    10.0   1_545     S
V3     V43    10.0   .     S
V3     V16    10.0   1_545     S
V3     V5    10.0   .     S
V3     V46    10.0   1_545     S
V3     V47    10.0   .     S
V4     V8    10.0   .     S
V4     V47    10.0   .     S
V4     V44    10.0   .     S
V4     V15    10.0   .     S
V4     V6    10.0   .     S
V4     V45    10.0   .     S
V4     V48    10.0   .     S
V5     V11    10.0   .     S
V5     V14    10.0   1_545     S
V5     V15    10.0   .     S
V5     V16    10.0   1_545     S
V5     V46    10.0   1_545     S
V6     V12    10.0   .     S
V6     V13    10.0   .     S
V6     V16    10.0   .     S
V6     V15    10.0   .     S
V6     V45    10.0   .     S
V7     V9    10.0   1_655     S
V7     V16    10.0   1_545     S
V7     V13    10.0   1_655     S
V7     V1    10.0   1_655     S
V7     V14    10.0   1_645     S
V7     V48    10.0   1_545     S
V8     V10    10.0   1_655     S
V8     V15    10.0   .     S
V8     V14    10.0   1_655     S
V8     V2    10.0   1_655     S
V8     V13    10.0   1_655     S
V8     V47    10.0   .     S
V9     V7    10.0   1_455     S
V9     V13    10.0   .     S
V9     V21    10.0   1_554     S
V9     V19    10.0   1_454     S
V9     V17    10.0   1_554     S
V9     V14    10.0   1_545     S
V9     V20    10.0   1_444     S
V10     V8    10.0   1_455     S
V10     V14    10.0   .     S
V10     V22    10.0   1_554     S
V10     V20    10.0   1_454     S
V10     V18    10.0   1_554     S
V10     V13    10.0   .     S
V10     V19    10.0   1_454     S
V11     V15    10.0   .     S
V11     V23    10.0   1_554     S
V11     V17    10.0   1_554     S
V11     V19    10.0   1_554     S
V11     V16    10.0   1_545     S
V11     V18    10.0   1_544     S
V12     V16    10.0   .     S
V12     V24    10.0   1_554     S
V12     V18    10.0   1_554     S
V12     V20    10.0   1_554     S
V12     V15    10.0   .     S
V12     V17    10.0   1_554     S
V13     V7    10.0   1_455     S
V13     V19    10.0   1_454     S
V13     V8    10.0   1_455     S
V14     V5    10.0   1_565     S
V14     V8    10.0   1_455     S
V14     V1    10.0   1_565     S
V14     V20    10.0   1_454     S
V14     V9    10.0   1_565     S
V14     V7    10.0   1_465     S
V15     V17    10.0   1_554     S
V16     V7    10.0   1_565     S
V16     V3    10.0   1_565     S
V16     V18    10.0   1_554     S
V16     V11    10.0   1_565     S
V16     V5    10.0   1_565     S
V17     V11    10.0   1_556     S
V17     V21    10.0   .     S
V17     V9    10.0   1_556     S
V17     V15    10.0   1_556     S
V17     V37    10.0   .     S
V17     V24    10.0   .     S
V17     V12    10.0   1_556     S
V18     V12    10.0   1_556     S
V18     V22    10.0   .     S
V18     V10    10.0   1_556     S
V18     V16    10.0   1_556     S
V18     V38    10.0   .     S
V18     V23    10.0   1_565     S
V18     V11    10.0   1_566     S
V19     V9    10.0   1_656     S
V19     V23    10.0   .     S
V19     V11    10.0   1_556     S
V19     V13    10.0   1_656     S
V19     V39    10.0   .     S
V19     V22    10.0   1_655     S
V19     V10    10.0   1_656     S
V20     V10    10.0   1_656     S
V20     V24    10.0   .     S
V20     V12    10.0   1_556     S
V20     V14    10.0   1_656     S
V20     V40    10.0   .     S
V20     V21    10.0   1_665     S
V20     V9    10.0   1_666     S
V21     V9    10.0   1_556     S
V21     V34    10.0   1_545     S
V21     V37    10.0   .     S
V21     V38    10.0   1_545     S
V21     V20    10.0   1_445     S
V21     V40    10.0   1_445     S
V22     V10    10.0   1_556     S
V22     V33    10.0   .     S
V22     V38    10.0   .     S
V22     V37    10.0   .     S
V22     V19    10.0   1_455     S
V22     V39    10.0   1_455     S
V23     V11    10.0   1_556     S
V23     V36    10.0   1_545     S
V23     V39    10.0   .     S
V23     V40    10.0   1_545     S
V23     V18    10.0   1_545     S
V23     V38    10.0   1_545     S
V24     V12    10.0   1_556     S
V24     V35    10.0   .     S
V24     V40    10.0   .     S
V24     V39    10.0   .     S
V24     V37    10.0   .     S
V25     V29    10.0   .     S
V25     V38    10.0   1_545     S
V25     V35    10.0   .     S
V25     V34    10.0   1_545     S
V25     V30    10.0   1_545     S
V25     V36    10.0   1_545     S
V25     V43    10.0   .     S
V26     V30    10.0   .     S
V26     V37    10.0   .     S
V26     V36    10.0   .     S
V26     V33    10.0   .     S
V26     V29    10.0   .     S
V26     V35    10.0   .     S
V26     V44    10.0   .     S
V27     V31    10.0   .     S
V27     V40    10.0   1_545     S
V27     V33    10.0   1_655     S
V27     V36    10.0   1_545     S
V27     V32    10.0   1_545     S
V27     V34    10.0   1_645     S
V27     V41    10.0   1_655     S
V28     V32    10.0   .     S
V28     V39    10.0   .     S
V28     V34    10.0   1_655     S
V28     V35    10.0   .     S
V28     V31    10.0   .     S
V28     V33    10.0   1_655     S
V28     V42    10.0   1_655     S
V29     V45    10.0   .     S
V29     V43    10.0   .     S
V29     V35    10.0   .     S
V29     V44    10.0   .     S
V29     V41    10.0   .     S
V30     V46    10.0   .     S
V30     V44    10.0   .     S
V30     V36    10.0   .     S
V30     V25    10.0   1_565     S
V30     V43    10.0   1_565     S
V30     V42    10.0   .     S
V31     V47    10.0   .     S
V31     V41    10.0   1_655     S
V31     V33    10.0   1_655     S
V31     V42    10.0   1_655     S
V31     V43    10.0   .     S
V32     V48    10.0   .     S
V32     V42    10.0   1_655     S
V32     V34    10.0   1_655     S
V32     V27    10.0   1_565     S
V32     V41    10.0   1_665     S
V32     V44    10.0   .     S
V33     V27    10.0   1_455     S
V33     V37    10.0   .     S
V33     V31    10.0   1_455     S
V33     V39    10.0   1_455     S
V33     V28    10.0   1_455     S
V34     V21    10.0   1_565     S
V34     V28    10.0   1_455     S
V34     V38    10.0   .     S
V34     V32    10.0   1_455     S
V34     V25    10.0   1_565     S
V34     V40    10.0   1_455     S
V34     V27    10.0   1_465     S
V35     V39    10.0   .     S
V35     V37    10.0   .     S
V36     V23    10.0   1_565     S
V36     V40    10.0   .     S
V36     V27    10.0   1_565     S
V36     V38    10.0   .     S
V36     V25    10.0   1_565     S
V38     V25    10.0   1_565     S
V38     V21    10.0   1_565     S
V38     V23    10.0   1_565     S
V39     V33    10.0   1_655     S
V39     V22    10.0   1_655     S
V40     V27    10.0   1_565     S
V40     V23    10.0   1_565     S
V40     V34    10.0   1_655     S
V40     V21    10.0   1_665     S
V41     V31    10.0   1_455     S
V41     V48    10.0   1_445     S
V41     V32    10.0   1_445     S
V41     V45    10.0   .     S
V41     V27    10.0   1_455     S
V42     V32    10.0   1_455     S
V42     V47    10.0   1_455     S
V42     V31    10.0   1_455     S
V42     V46    10.0   .     S
V42     V28    10.0   1_455     S
V43     V46    10.0   1_545     S
V43     V30    10.0   1_545     S
V43     V47    10.0   .     S
V44     V45    10.0   .     S
V44     V48    10.0   .     S
V46     V1    10.0   1_565     S
V46     V3    10.0   1_565     S
V46     V43    10.0   1_565     S
V46     V5    10.0   1_565     S
V47     V2    10.0   1_655     S
V47     V42    10.0   1_655     S
V48     V3    10.0   1_565     S
V48     V1    10.0   1_665     S
V48     V41    10.0   1_665     S
V48     V7    10.0   1_565     S
