data_wkw
_audit_creation_date              2019-12-31
_audit_creation_method            'Pymatgen'
_symmetry_space_group_name_H-M    'P1'
_symmetry_Int_Tables_number       1
loop_
_symmetry_equiv_pos_as_xyz
  x,y,z
_cell_length_a                    25.2735
_cell_length_b                    25.2735
_cell_length_c                    30.0
_cell_angle_alpha                 90.0
_cell_angle_beta                 90.0
_cell_angle_gamma                 120.0
loop_
_atom_site_label
_atom_site_type_symbol
_atom_site_fract_x
_atom_site_fract_y
_atom_site_fract_z
V1     V     0.1326   0.6935   0.1667
V2     V     0.1326   0.6935   0.5
V3     V     0.1326   0.6935   0.8333
V4     V     0.8674   0.3066   0.0
V5     V     0.8674   0.3066   0.3333
V6     V     0.8674   0.3066   0.6667
V7     V     0.5608   0.8674   0.0556
V8     V     0.5608   0.8674   0.3889
V9     V     0.5608   0.8674   0.7222
V10     V     0.4392   0.1326   0.2222
V11     V     0.4392   0.1326   0.5556
V12     V     0.4392   0.1326   0.8889
V13     V     0.6934   0.5609   0.1111
V14     V     0.6934   0.5609   0.4444
V15     V     0.6934   0.5609   0.7778
V16     V     0.3066   0.4392   0.2778
V17     V     0.3066   0.4392   0.6111
V18     V     0.3066   0.4392   0.9444
loop_
_geom_bond_atom_site_label_1
_geom_bond_atom_site_label_2
_geom_bond_distance
_geom_bond_site_symmetry_2
_ccdc_geom_bond_type
V1     V13    10.0   1_455     S
V1     V4    10.0   1_455     S
V1     V7    10.0   .     S
V1     V5    10.0   1_455     S
V1     V3    10.0   1_554     S
V1     V2    10.0   .     S
V1     V10    10.0   1_565     S
V1     V16    10.0   .     S
V2     V14    10.0   1_455     S
V2     V5    10.0   1_455     S
V2     V8    10.0   .     S
V2     V6    10.0   1_455     S
V2     V3    10.0   .     S
V2     V11    10.0   1_565     S
V2     V17    10.0   .     S
V3     V15    10.0   1_455     S
V3     V6    10.0   1_455     S
V3     V9    10.0   .     S
V3     V4    10.0   1_456     S
V3     V1    10.0   1_556     S
V3     V12    10.0   1_565     S
V3     V18    10.0   .     S
V4     V1    10.0   1_655     S
V4     V18    10.0   1_654     S
V4     V3    10.0   1_654     S
V4     V12    10.0   1_554     S
V4     V5    10.0   .     S
V4     V6    10.0   1_554     S
V4     V7    10.0   1_545     S
V4     V13    10.0   .     S
V5     V2    10.0   1_655     S
V5     V16    10.0   1_655     S
V5     V1    10.0   1_655     S
V5     V10    10.0   .     S
V5     V6    10.0   .     S
V5     V8    10.0   1_545     S
V5     V14    10.0   .     S
V6     V3    10.0   1_655     S
V6     V17    10.0   1_655     S
V6     V2    10.0   1_655     S
V6     V11    10.0   .     S
V6     V4    10.0   1_556     S
V6     V9    10.0   1_545     S
V6     V15    10.0   .     S
V7     V4    10.0   1_565     S
V7     V12    10.0   1_564     S
V7     V18    10.0   1_554     S
V7     V10    10.0   1_565     S
V7     V8    10.0   .     S
V7     V9    10.0   1_554     S
V7     V13    10.0   .     S
V8     V5    10.0   1_565     S
V8     V10    10.0   1_565     S
V8     V16    10.0   .     S
V8     V11    10.0   1_565     S
V8     V9    10.0   .     S
V8     V14    10.0   .     S
V9     V6    10.0   1_565     S
V9     V11    10.0   1_565     S
V9     V17    10.0   .     S
V9     V12    10.0   1_565     S
V9     V7    10.0   1_556     S
V9     V15    10.0   .     S
V10     V8    10.0   1_545     S
V10     V1    10.0   1_545     S
V10     V7    10.0   1_545     S
V10     V13    10.0   .     S
V10     V12    10.0   1_554     S
V10     V11    10.0   .     S
V10     V16    10.0   .     S
V11     V9    10.0   1_545     S
V11     V2    10.0   1_545     S
V11     V8    10.0   1_545     S
V11     V14    10.0   .     S
V11     V12    10.0   .     S
V11     V17    10.0   .     S
V12     V4    10.0   1_556     S
V12     V7    10.0   1_546     S
V12     V3    10.0   1_545     S
V12     V9    10.0   1_545     S
V12     V15    10.0   .     S
V12     V10    10.0   1_556     S
V12     V18    10.0   .     S
V13     V1    10.0   1_655     S
V13     V18    10.0   1_554     S
V13     V16    10.0   .     S
V13     V14    10.0   .     S
V13     V15    10.0   1_554     S
V14     V2    10.0   1_655     S
V14     V16    10.0   .     S
V14     V17    10.0   .     S
V14     V15    10.0   .     S
V15     V3    10.0   1_655     S
V15     V17    10.0   .     S
V15     V18    10.0   .     S
V15     V13    10.0   1_556     S
V16     V5    10.0   1_455     S
V16     V18    10.0   1_554     S
V16     V17    10.0   .     S
V17     V6    10.0   1_455     S
V17     V18    10.0   .     S
V18     V4    10.0   1_456     S
V18     V7    10.0   1_556     S
V18     V13    10.0   1_556     S
V18     V16    10.0   1_556     S
