data_wkx
_audit_creation_date              2019-12-31
_audit_creation_method            'Pymatgen'
_symmetry_space_group_name_H-M    'P1'
_symmetry_Int_Tables_number       1
loop_
_symmetry_equiv_pos_as_xyz
  x,y,z
_cell_length_a                    39.667
_cell_length_b                    39.667
_cell_length_c                    51.1186
_cell_angle_alpha                 90.0
_cell_angle_beta                 90.0
_cell_angle_gamma                 120.0
loop_
_atom_site_label
_atom_site_type_symbol
_atom_site_fract_x
_atom_site_fract_y
_atom_site_fract_z
V1     V     0.1495   0.1005   0.4293
V2     V     0.1495   0.6005   0.4293
V3     V     0.6495   0.1005   0.4293
V4     V     0.6495   0.6005   0.4293
V5     V     0.3995   0.3505   0.4041
V6     V     0.3995   0.8505   0.4041
V7     V     0.8995   0.3505   0.4041
V8     V     0.8995   0.8505   0.4041
V9     V     0.1005   0.451   0.2626
V10     V     0.1005   0.951   0.2626
V11     V     0.6005   0.451   0.2626
V12     V     0.6005   0.951   0.2626
V13     V     0.3505   0.451   0.2374
V14     V     0.3505   0.951   0.2374
V15     V     0.8505   0.451   0.2374
V16     V     0.8505   0.951   0.2374
V17     V     0.451   0.3505   0.0959
V18     V     0.451   0.8505   0.0959
V19     V     0.951   0.3505   0.0959
V20     V     0.951   0.8505   0.0959
V21     V     0.451   0.1005   0.0707
V22     V     0.451   0.6005   0.0707
V23     V     0.951   0.1005   0.0707
V24     V     0.951   0.6005   0.0707
V25     V     0.3505   0.3995   0.9293
V26     V     0.3505   0.8995   0.9293
V27     V     0.8505   0.3995   0.9293
V28     V     0.8505   0.8995   0.9293
V29     V     0.1005   0.1495   0.9041
V30     V     0.1005   0.6495   0.9041
V31     V     0.6005   0.1495   0.9041
V32     V     0.6005   0.6495   0.9041
V33     V     0.3995   0.049   0.7626
V34     V     0.3995   0.549   0.7626
V35     V     0.8995   0.049   0.7626
V36     V     0.8995   0.549   0.7626
V37     V     0.1495   0.049   0.7374
V38     V     0.1495   0.549   0.7374
V39     V     0.6495   0.049   0.7374
V40     V     0.6495   0.549   0.7374
V41     V     0.049   0.1495   0.5959
V42     V     0.049   0.6495   0.5959
V43     V     0.549   0.1495   0.5959
V44     V     0.549   0.6495   0.5959
V45     V     0.049   0.3995   0.5707
V46     V     0.049   0.8995   0.5707
V47     V     0.549   0.3995   0.5707
V48     V     0.549   0.8995   0.5707
loop_
_geom_bond_atom_site_label_1
_geom_bond_atom_site_label_2
_geom_bond_distance
_geom_bond_site_symmetry_2
_ccdc_geom_bond_type
V1     V8    10.0   1_445     S
V1     V5    10.0   .     S
V1     V10    10.0   1_545     S
V1     V46    10.0   1_545     S
V1     V41    10.0   .     S
V2     V7    10.0   1_455     S
V2     V6    10.0   .     S
V2     V9    10.0   .     S
V2     V45    10.0   .     S
V2     V42    10.0   .     S
V3     V6    10.0   1_545     S
V3     V7    10.0   .     S
V3     V12    10.0   1_545     S
V3     V48    10.0   1_545     S
V3     V43    10.0   .     S
V4     V5    10.0   .     S
V4     V8    10.0   .     S
V4     V11    10.0   .     S
V4     V47    10.0   .     S
V4     V44    10.0   .     S
V5     V47    10.0   .     S
V5     V13    10.0   .     S
V5     V11    10.0   .     S
V6     V3    10.0   1_565     S
V6     V48    10.0   .     S
V6     V14    10.0   .     S
V6     V12    10.0   .     S
V7     V2    10.0   1_655     S
V7     V45    10.0   1_655     S
V7     V15    10.0   .     S
V7     V9    10.0   1_655     S
V8     V1    10.0   1_665     S
V8     V46    10.0   1_655     S
V8     V16    10.0   .     S
V8     V10    10.0   1_655     S
V9     V15    10.0   1_455     S
V9     V13    10.0   .     S
V9     V7    10.0   1_455     S
V9     V19    10.0   1_455     S
V10     V1    10.0   1_565     S
V10     V16    10.0   1_455     S
V10     V14    10.0   .     S
V10     V8    10.0   1_455     S
V10     V20    10.0   1_455     S
V11     V13    10.0   .     S
V11     V15    10.0   .     S
V11     V17    10.0   .     S
V12     V3    10.0   1_565     S
V12     V14    10.0   .     S
V12     V16    10.0   .     S
V12     V18    10.0   .     S
V13     V22    10.0   .     S
V13     V17    10.0   .     S
V14     V21    10.0   1_565     S
V14     V18    10.0   .     S
V15     V9    10.0   1_655     S
V15     V24    10.0   .     S
V15     V19    10.0   .     S
V16     V10    10.0   1_655     S
V16     V23    10.0   1_565     S
V16     V20    10.0   .     S
V17     V22    10.0   .     S
V17     V21    10.0   .     S
V17     V25    10.0   1_554     S
V18     V21    10.0   1_565     S
V18     V22    10.0   .     S
V18     V26    10.0   1_554     S
V19     V9    10.0   1_655     S
V19     V24    10.0   .     S
V19     V23    10.0   .     S
V19     V27    10.0   1_554     S
V20     V10    10.0   1_655     S
V20     V23    10.0   1_565     S
V20     V24    10.0   .     S
V20     V28    10.0   1_554     S
V21     V18    10.0   1_545     S
V21     V14    10.0   1_545     S
V21     V31    10.0   1_554     S
V21     V26    10.0   1_544     S
V22     V32    10.0   1_554     S
V22     V25    10.0   1_554     S
V23     V20    10.0   1_545     S
V23     V16    10.0   1_545     S
V23     V29    10.0   1_654     S
V23     V28    10.0   1_544     S
V24     V30    10.0   1_654     S
V24     V27    10.0   1_554     S
V25     V17    10.0   1_556     S
V25     V32    10.0   .     S
V25     V29    10.0   .     S
V25     V34    10.0   .     S
V25     V22    10.0   1_556     S
V26     V18    10.0   1_556     S
V26     V31    10.0   1_565     S
V26     V30    10.0   .     S
V26     V33    10.0   1_565     S
V26     V21    10.0   1_566     S
V27     V19    10.0   1_556     S
V27     V30    10.0   1_655     S
V27     V31    10.0   .     S
V27     V36    10.0   .     S
V27     V24    10.0   1_556     S
V28     V20    10.0   1_556     S
V28     V29    10.0   1_665     S
V28     V32    10.0   .     S
V28     V35    10.0   1_565     S
V28     V23    10.0   1_566     S
V29     V28    10.0   1_445     S
V29     V23    10.0   1_456     S
V29     V37    10.0   .     S
V29     V35    10.0   1_455     S
V30     V27    10.0   1_455     S
V30     V24    10.0   1_456     S
V30     V38    10.0   .     S
V30     V36    10.0   1_455     S
V31     V26    10.0   1_545     S
V31     V21    10.0   1_556     S
V31     V39    10.0   .     S
V31     V33    10.0   .     S
V32     V22    10.0   1_556     S
V32     V40    10.0   .     S
V32     V34    10.0   .     S
V33     V26    10.0   1_545     S
V33     V39    10.0   .     S
V33     V37    10.0   .     S
V33     V43    10.0   .     S
V34     V40    10.0   .     S
V34     V38    10.0   .     S
V34     V44    10.0   .     S
V35     V28    10.0   1_545     S
V35     V37    10.0   1_655     S
V35     V39    10.0   .     S
V35     V29    10.0   1_655     S
V35     V41    10.0   1_655     S
V36     V38    10.0   1_655     S
V36     V40    10.0   .     S
V36     V30    10.0   1_655     S
V36     V42    10.0   1_655     S
V37     V35    10.0   1_455     S
V37     V46    10.0   1_545     S
V37     V41    10.0   .     S
V38     V36    10.0   1_455     S
V38     V45    10.0   .     S
V38     V42    10.0   .     S
V39     V48    10.0   1_545     S
V39     V43    10.0   .     S
V40     V47    10.0   .     S
V40     V44    10.0   .     S
V41     V35    10.0   1_455     S
V41     V46    10.0   1_545     S
V41     V45    10.0   .     S
V42     V36    10.0   1_455     S
V42     V45    10.0   .     S
V42     V46    10.0   .     S
V43     V48    10.0   1_545     S
V43     V47    10.0   .     S
V44     V47    10.0   .     S
V44     V48    10.0   .     S
V45     V7    10.0   1_455     S
V46     V8    10.0   1_455     S
V46     V1    10.0   1_565     S
V46     V41    10.0   1_565     S
V46     V37    10.0   1_565     S
V48     V3    10.0   1_565     S
V48     V43    10.0   1_565     S
V48     V39    10.0   1_565     S
