data_wla
_audit_creation_date              2019-12-31
_audit_creation_method            'Pymatgen'
_symmetry_space_group_name_H-M    'P1'
_symmetry_Int_Tables_number       1
loop_
_symmetry_equiv_pos_as_xyz
  x,y,z
_cell_length_a                    35.6529
_cell_length_b                    35.6529
_cell_length_c                    38.3682
_cell_angle_alpha                 90.0
_cell_angle_beta                 90.0
_cell_angle_gamma                 120.0
loop_
_atom_site_label
_atom_site_type_symbol
_atom_site_fract_x
_atom_site_fract_y
_atom_site_fract_z
V1     V     0.6209   0.4675   0.2917
V2     V     0.6209   0.4675   0.7917
V3     V     0.4675   0.6209   0.2083
V4     V     0.4675   0.6209   0.7083
V5     V     0.7124   0.5132   0.0417
V6     V     0.7124   0.5132   0.5417
V7     V     0.8659   0.8201   0.125
V8     V     0.8659   0.8201   0.625
V9     V     0.8201   0.8659   0.375
V10     V     0.8201   0.8659   0.875
V11     V     0.5132   0.7124   0.4583
V12     V     0.5132   0.7124   0.9583
V13     V     0.1341   0.9542   0.375
V14     V     0.1341   0.9542   0.875
V15     V     0.2876   0.8008   0.4583
V16     V     0.2876   0.8008   0.9583
V17     V     0.3791   0.8466   0.2083
V18     V     0.3791   0.8466   0.7083
V19     V     0.5325   0.1534   0.2917
V20     V     0.5325   0.1534   0.7917
V21     V     0.4868   0.1992   0.0417
V22     V     0.4868   0.1992   0.5417
V23     V     0.1799   0.0458   0.125
V24     V     0.1799   0.0458   0.625
V25     V     0.1534   0.5325   0.2083
V26     V     0.1534   0.5325   0.7083
V27     V     0.8466   0.3791   0.2917
V28     V     0.8466   0.3791   0.7917
V29     V     0.1992   0.4868   0.4583
V30     V     0.1992   0.4868   0.9583
V31     V     0.0458   0.1799   0.375
V32     V     0.0458   0.1799   0.875
V33     V     0.8008   0.2876   0.0417
V34     V     0.8008   0.2876   0.5417
V35     V     0.9542   0.1341   0.125
V36     V     0.9542   0.1341   0.625
loop_
_geom_bond_atom_site_label_1
_geom_bond_atom_site_label_2
_geom_bond_distance
_geom_bond_site_symmetry_2
_ccdc_geom_bond_type
V1     V3    10.0   .     S
V1     V6    10.0   .     S
V1     V5    10.0   .     S
V1     V27    10.0   .     S
V1     V19    10.0   .     S
V2     V4    10.0   .     S
V2     V5    10.0   1_556     S
V2     V6    10.0   .     S
V2     V28    10.0   .     S
V2     V20    10.0   .     S
V3     V11    10.0   .     S
V3     V12    10.0   1_554     S
V3     V17    10.0   .     S
V3     V25    10.0   .     S
V4     V12    10.0   .     S
V4     V11    10.0   .     S
V4     V18    10.0   .     S
V4     V26    10.0   .     S
V5     V7    10.0   .     S
V5     V2    10.0   1_554     S
V5     V33    10.0   .     S
V5     V21    10.0   .     S
V6     V8    10.0   .     S
V6     V34    10.0   .     S
V6     V22    10.0   .     S
V7     V9    10.0   .     S
V7     V10    10.0   1_554     S
V7     V35    10.0   1_565     S
V7     V23    10.0   1_665     S
V8     V10    10.0   .     S
V8     V9    10.0   .     S
V8     V36    10.0   1_565     S
V8     V24    10.0   1_665     S
V9     V11    10.0   .     S
V9     V31    10.0   1_665     S
V9     V13    10.0   1_655     S
V10     V12    10.0   .     S
V10     V7    10.0   1_556     S
V10     V32    10.0   1_665     S
V10     V14    10.0   1_655     S
V11     V15    10.0   .     S
V11     V29    10.0   .     S
V12     V3    10.0   1_556     S
V12     V16    10.0   .     S
V12     V30    10.0   .     S
V13     V15    10.0   .     S
V13     V23    10.0   1_565     S
V13     V24    10.0   1_565     S
V13     V9    10.0   1_455     S
V13     V31    10.0   1_565     S
V14     V16    10.0   .     S
V14     V24    10.0   1_565     S
V14     V23    10.0   1_566     S
V14     V10    10.0   1_455     S
V14     V32    10.0   1_565     S
V15     V17    10.0   .     S
V15     V18    10.0   .     S
V15     V29    10.0   .     S
V16     V18    10.0   .     S
V16     V17    10.0   1_556     S
V16     V30    10.0   .     S
V17     V19    10.0   1_565     S
V17     V16    10.0   1_554     S
V17     V25    10.0   .     S
V18     V20    10.0   1_565     S
V18     V26    10.0   .     S
V19     V27    10.0   .     S
V19     V17    10.0   1_545     S
V19     V21    10.0   .     S
V19     V22    10.0   .     S
V20     V28    10.0   .     S
V20     V18    10.0   1_545     S
V20     V22    10.0   .     S
V20     V21    10.0   1_556     S
V21     V23    10.0   .     S
V21     V20    10.0   1_554     S
V21     V33    10.0   .     S
V22     V24    10.0   .     S
V22     V34    10.0   .     S
V23     V35    10.0   1_455     S
V23     V7    10.0   1_445     S
V23     V13    10.0   1_545     S
V23     V14    10.0   1_544     S
V24     V36    10.0   1_455     S
V24     V8    10.0   1_445     S
V24     V14    10.0   1_545     S
V24     V13    10.0   1_545     S
V25     V27    10.0   1_455     S
V25     V29    10.0   .     S
V25     V30    10.0   1_554     S
V26     V28    10.0   1_455     S
V26     V30    10.0   .     S
V26     V29    10.0   .     S
V27     V25    10.0   1_655     S
V27     V34    10.0   .     S
V27     V33    10.0   .     S
V28     V26    10.0   1_655     S
V28     V33    10.0   1_556     S
V28     V34    10.0   .     S
V29     V31    10.0   .     S
V30     V32    10.0   .     S
V30     V25    10.0   1_556     S
V31     V9    10.0   1_445     S
V31     V13    10.0   1_545     S
V31     V35    10.0   1_455     S
V31     V36    10.0   1_455     S
V32     V10    10.0   1_445     S
V32     V14    10.0   1_545     S
V32     V36    10.0   1_455     S
V32     V35    10.0   1_456     S
V33     V35    10.0   .     S
V33     V28    10.0   1_554     S
V34     V36    10.0   .     S
V35     V23    10.0   1_655     S
V35     V7    10.0   1_545     S
V35     V31    10.0   1_655     S
V35     V32    10.0   1_654     S
V36     V24    10.0   1_655     S
V36     V8    10.0   1_545     S
V36     V32    10.0   1_655     S
V36     V31    10.0   1_655     S
