data_wlc
_audit_creation_date              2019-12-31
_audit_creation_method            'Pymatgen'
_symmetry_space_group_name_H-M    'P1'
_symmetry_Int_Tables_number       1
loop_
_symmetry_equiv_pos_as_xyz
  x,y,z
_cell_length_a                    32.8908
_cell_length_b                    32.8908
_cell_length_c                    35.2488
_cell_angle_alpha                 90.0
_cell_angle_beta                 90.0
_cell_angle_gamma                 120.0
loop_
_atom_site_label
_atom_site_type_symbol
_atom_site_fract_x
_atom_site_fract_y
_atom_site_fract_z
V1     V     0.5837   0.6667   0.0445
V2     V     0.5837   0.6667   0.5445
V3     V     0.6667   0.5837   0.2945
V4     V     0.6667   0.5837   0.7945
V5     V     0.5837   0.917   0.2055
V6     V     0.5837   0.917   0.7055
V7     V     0.4163   0.083   0.2945
V8     V     0.4163   0.083   0.7945
V9     V     0.4163   0.3333   0.4555
V10     V     0.4163   0.3333   0.9555
V11     V     0.917   0.3333   0.2945
V12     V     0.917   0.3333   0.7945
V13     V     0.6667   0.083   0.4555
V14     V     0.6667   0.083   0.9555
V15     V     0.083   0.4163   0.0445
V16     V     0.083   0.4163   0.5445
V17     V     0.3333   0.4163   0.2055
V18     V     0.3333   0.4163   0.7055
V19     V     0.3333   0.917   0.0445
V20     V     0.3333   0.917   0.5445
V21     V     0.083   0.6667   0.2055
V22     V     0.083   0.6667   0.7055
V23     V     0.917   0.5837   0.4555
V24     V     0.917   0.5837   0.9555
loop_
_geom_bond_atom_site_label_1
_geom_bond_atom_site_label_2
_geom_bond_distance
_geom_bond_site_symmetry_2
_ccdc_geom_bond_type
V1     V17    10.0   .     S
V1     V10    10.0   1_554     S
V1     V4    10.0   1_554     S
V1     V3    10.0   .     S
V1     V5    10.0   .     S
V2     V18    10.0   .     S
V2     V9    10.0   .     S
V2     V3    10.0   .     S
V2     V4    10.0   .     S
V2     V6    10.0   .     S
V3     V17    10.0   .     S
V3     V9    10.0   .     S
V3     V23    10.0   .     S
V4     V18    10.0   .     S
V4     V10    10.0   .     S
V4     V1    10.0   1_556     S
V4     V24    10.0   .     S
V5     V13    10.0   1_565     S
V5     V14    10.0   1_564     S
V5     V7    10.0   1_565     S
V5     V19    10.0   .     S
V6     V14    10.0   1_565     S
V6     V13    10.0   1_565     S
V6     V8    10.0   1_565     S
V6     V20    10.0   .     S
V7     V9    10.0   .     S
V7     V19    10.0   1_545     S
V7     V20    10.0   1_545     S
V7     V5    10.0   1_545     S
V7     V13    10.0   .     S
V8     V10    10.0   .     S
V8     V20    10.0   1_545     S
V8     V19    10.0   1_546     S
V8     V6    10.0   1_545     S
V8     V14    10.0   .     S
V9     V18    10.0   .     S
V9     V17    10.0   .     S
V10     V1    10.0   1_556     S
V10     V17    10.0   1_556     S
V10     V18    10.0   .     S
V11     V21    10.0   1_655     S
V11     V23    10.0   .     S
V11     V13    10.0   .     S
V11     V15    10.0   1_655     S
V11     V16    10.0   1_655     S
V12     V22    10.0   1_655     S
V12     V24    10.0   .     S
V12     V14    10.0   .     S
V12     V16    10.0   1_655     S
V12     V15    10.0   1_656     S
V13     V5    10.0   1_545     S
V13     V6    10.0   1_545     S
V13     V20    10.0   1_545     S
V14     V6    10.0   1_545     S
V14     V5    10.0   1_546     S
V14     V19    10.0   1_546     S
V15     V24    10.0   1_454     S
V15     V21    10.0   .     S
V15     V11    10.0   1_455     S
V15     V17    10.0   .     S
V15     V12    10.0   1_454     S
V16     V23    10.0   1_455     S
V16     V22    10.0   .     S
V16     V12    10.0   1_455     S
V16     V18    10.0   .     S
V16     V11    10.0   1_455     S
V17     V10    10.0   1_554     S
V19     V7    10.0   1_565     S
V19     V8    10.0   1_564     S
V19     V21    10.0   .     S
V19     V14    10.0   1_564     S
V20     V8    10.0   1_565     S
V20     V7    10.0   1_565     S
V20     V22    10.0   .     S
V20     V13    10.0   1_565     S
V21     V11    10.0   1_455     S
V21     V23    10.0   1_455     S
V21     V24    10.0   1_454     S
V22     V12    10.0   1_455     S
V22     V24    10.0   1_455     S
V22     V23    10.0   1_455     S
V23     V16    10.0   1_655     S
V23     V21    10.0   1_655     S
V23     V22    10.0   1_655     S
V24     V15    10.0   1_656     S
V24     V22    10.0   1_655     S
V24     V21    10.0   1_656     S
