data_wle
_audit_creation_date              2019-12-31
_audit_creation_method            'Pymatgen'
_symmetry_space_group_name_H-M    'P1'
_symmetry_Int_Tables_number       1
loop_
_symmetry_equiv_pos_as_xyz
  x,y,z
_cell_length_a                    65.836
_cell_length_b                    65.836
_cell_length_c                    29.6308
_cell_angle_alpha                 90.0
_cell_angle_beta                 90.0
_cell_angle_gamma                 120.0
loop_
_atom_site_label
_atom_site_type_symbol
_atom_site_fract_x
_atom_site_fract_y
_atom_site_fract_z
V1     V     0.4166   0.4813   0.2611
V2     V     0.4166   0.4813   0.7611
V3     V     0.4813   0.4166   0.4889
V4     V     0.4813   0.4166   0.9889
V5     V     0.5834   0.5187   0.2389
V6     V     0.5834   0.5187   0.7389
V7     V     0.5187   0.5834   0.0111
V8     V     0.5187   0.5834   0.5111
V9     V     0.1853   0.9167   0.1778
V10     V     0.1853   0.9167   0.6778
V11     V     0.148   0.75   0.1556
V12     V     0.148   0.75   0.6556
V13     V     0.0833   0.8147   0.4278
V14     V     0.0833   0.8147   0.9278
V15     V     0.25   0.852   0.4056
V16     V     0.25   0.852   0.9056
V17     V     0.0647   0.4813   0.0111
V18     V     0.0647   0.4813   0.5111
V19     V     0.9353   0.4166   0.2389
V20     V     0.9353   0.4166   0.7389
V21     V     0.9353   0.5187   0.4889
V22     V     0.9353   0.5187   0.9889
V23     V     0.0647   0.5834   0.2611
V24     V     0.0647   0.5834   0.7611
V25     V     0.7314   0.8147   0.1778
V26     V     0.7314   0.8147   0.6778
V27     V     0.7314   0.9167   0.4278
V28     V     0.7314   0.9167   0.9278
V29     V     0.602   0.75   0.4056
V30     V     0.602   0.75   0.9056
V31     V     0.602   0.852   0.1556
V32     V     0.602   0.852   0.6556
V33     V     0.8147   0.7314   0.0722
V34     V     0.8147   0.7314   0.5722
V35     V     0.852   0.602   0.0944
V36     V     0.852   0.602   0.5944
V37     V     0.9167   0.7314   0.3222
V38     V     0.9167   0.7314   0.8222
V39     V     0.75   0.602   0.3444
V40     V     0.75   0.602   0.8444
V41     V     0.4813   0.0647   0.2389
V42     V     0.4813   0.0647   0.7389
V43     V     0.4166   0.9353   0.0111
V44     V     0.4166   0.9353   0.5111
V45     V     0.5834   0.0647   0.4889
V46     V     0.5834   0.0647   0.9889
V47     V     0.5187   0.9353   0.2611
V48     V     0.5187   0.9353   0.7611
V49     V     0.25   0.398   0.1556
V50     V     0.25   0.398   0.6556
V51     V     0.0833   0.2686   0.1778
V52     V     0.0833   0.2686   0.6778
V53     V     0.148   0.398   0.4056
V54     V     0.148   0.398   0.9056
V55     V     0.1853   0.2686   0.4278
V56     V     0.1853   0.2686   0.9278
V57     V     0.2686   0.1853   0.3222
V58     V     0.2686   0.1853   0.8222
V59     V     0.398   0.25   0.0944
V60     V     0.398   0.25   0.5944
V61     V     0.398   0.148   0.3444
V62     V     0.398   0.148   0.8444
V63     V     0.2686   0.0833   0.0722
V64     V     0.2686   0.0833   0.5722
V65     V     0.8147   0.0833   0.3222
V66     V     0.8147   0.0833   0.8222
V67     V     0.75   0.148   0.0944
V68     V     0.75   0.148   0.5944
V69     V     0.9167   0.1853   0.0722
V70     V     0.9167   0.1853   0.5722
V71     V     0.852   0.25   0.3444
V72     V     0.852   0.25   0.8444
loop_
_geom_bond_atom_site_label_1
_geom_bond_atom_site_label_2
_geom_bond_distance
_geom_bond_site_symmetry_2
_ccdc_geom_bond_type
V1     V3    10.0   .     S
V1     V8    10.0   .     S
V1     V5    10.0   .     S
V1     V7    10.0   .     S
V1     V49    10.0   .     S
V2     V4    10.0   .     S
V2     V7    10.0   1_556     S
V2     V6    10.0   .     S
V2     V8    10.0   .     S
V2     V50    10.0   .     S
V3     V5    10.0   .     S
V3     V8    10.0   .     S
V3     V6    10.0   .     S
V3     V60    10.0   .     S
V4     V6    10.0   .     S
V4     V7    10.0   1_556     S
V4     V5    10.0   1_556     S
V4     V59    10.0   1_556     S
V5     V7    10.0   .     S
V5     V4    10.0   1_554     S
V5     V39    10.0   .     S
V6     V8    10.0   .     S
V6     V40    10.0   .     S
V7     V2    10.0   1_554     S
V7     V4    10.0   1_554     S
V7     V30    10.0   1_554     S
V8     V29    10.0   .     S
V9     V14    10.0   1_554     S
V9     V11    10.0   .     S
V9     V15    10.0   .     S
V9     V13    10.0   .     S
V9     V63    10.0   1_565     S
V10     V13    10.0   .     S
V10     V12    10.0   .     S
V10     V16    10.0   .     S
V10     V14    10.0   .     S
V10     V64    10.0   1_565     S
V11     V14    10.0   1_554     S
V11     V16    10.0   1_554     S
V11     V15    10.0   .     S
V11     V23    10.0   .     S
V12     V13    10.0   .     S
V12     V15    10.0   .     S
V12     V16    10.0   .     S
V12     V24    10.0   .     S
V13     V15    10.0   .     S
V13     V37    10.0   1_455     S
V14     V11    10.0   1_556     S
V14     V9    10.0   1_556     S
V14     V16    10.0   .     S
V14     V38    10.0   1_455     S
V15     V44    10.0   .     S
V16     V11    10.0   1_556     S
V16     V43    10.0   1_556     S
V17     V19    10.0   1_455     S
V17     V23    10.0   .     S
V17     V22    10.0   1_454     S
V17     V24    10.0   1_554     S
V17     V54    10.0   1_554     S
V18     V20    10.0   1_455     S
V18     V24    10.0   .     S
V18     V21    10.0   1_455     S
V18     V23    10.0   .     S
V18     V53    10.0   .     S
V19     V23    10.0   1_655     S
V19     V17    10.0   1_655     S
V19     V22    10.0   1_554     S
V19     V21    10.0   .     S
V19     V71    10.0   .     S
V20     V24    10.0   1_655     S
V20     V18    10.0   1_655     S
V20     V21    10.0   .     S
V20     V22    10.0   .     S
V20     V72    10.0   .     S
V21     V18    10.0   1_655     S
V21     V23    10.0   1_655     S
V21     V36    10.0   .     S
V22     V19    10.0   1_556     S
V22     V17    10.0   1_656     S
V22     V24    10.0   1_655     S
V22     V35    10.0   1_556     S
V23     V19    10.0   1_455     S
V23     V21    10.0   1_455     S
V24     V20    10.0   1_455     S
V24     V22    10.0   1_455     S
V24     V17    10.0   1_556     S
V25     V31    10.0   .     S
V25     V28    10.0   1_554     S
V25     V29    10.0   .     S
V25     V27    10.0   .     S
V25     V33    10.0   .     S
V26     V32    10.0   .     S
V26     V27    10.0   .     S
V26     V30    10.0   .     S
V26     V28    10.0   .     S
V26     V34    10.0   .     S
V27     V32    10.0   .     S
V27     V29    10.0   .     S
V27     V65    10.0   1_565     S
V28     V31    10.0   1_556     S
V28     V25    10.0   1_556     S
V28     V30    10.0   .     S
V28     V66    10.0   1_565     S
V29     V32    10.0   .     S
V29     V31    10.0   .     S
V30     V7    10.0   1_556     S
V30     V31    10.0   1_556     S
V30     V32    10.0   .     S
V31     V28    10.0   1_554     S
V31     V30    10.0   1_554     S
V31     V47    10.0   .     S
V32     V48    10.0   .     S
V33     V35    10.0   .     S
V33     V37    10.0   .     S
V33     V40    10.0   1_554     S
V33     V38    10.0   1_554     S
V34     V36    10.0   .     S
V34     V38    10.0   .     S
V34     V39    10.0   .     S
V34     V37    10.0   .     S
V35     V37    10.0   .     S
V35     V39    10.0   .     S
V35     V40    10.0   1_554     S
V35     V22    10.0   1_554     S
V36     V38    10.0   .     S
V36     V40    10.0   .     S
V36     V39    10.0   .     S
V37     V39    10.0   .     S
V37     V13    10.0   1_655     S
V38     V40    10.0   .     S
V38     V33    10.0   1_556     S
V38     V14    10.0   1_655     S
V40     V33    10.0   1_556     S
V40     V35    10.0   1_556     S
V41     V43    10.0   1_545     S
V41     V46    10.0   1_554     S
V41     V47    10.0   1_545     S
V41     V45    10.0   .     S
V41     V61    10.0   .     S
V42     V44    10.0   1_545     S
V42     V45    10.0   .     S
V42     V48    10.0   1_545     S
V42     V46    10.0   .     S
V42     V62    10.0   .     S
V43     V16    10.0   1_554     S
V43     V46    10.0   1_564     S
V43     V41    10.0   1_565     S
V43     V47    10.0   .     S
V43     V48    10.0   1_554     S
V44     V45    10.0   1_565     S
V44     V42    10.0   1_565     S
V44     V48    10.0   .     S
V44     V47    10.0   .     S
V45     V44    10.0   1_545     S
V45     V47    10.0   1_545     S
V45     V68    10.0   .     S
V46     V43    10.0   1_546     S
V46     V41    10.0   1_556     S
V46     V48    10.0   1_545     S
V46     V67    10.0   1_556     S
V47     V41    10.0   1_565     S
V47     V45    10.0   1_565     S
V48     V42    10.0   1_565     S
V48     V46    10.0   1_565     S
V48     V43    10.0   1_556     S
V49     V53    10.0   .     S
V49     V51    10.0   .     S
V49     V56    10.0   1_554     S
V49     V54    10.0   1_554     S
V50     V54    10.0   .     S
V50     V52    10.0   .     S
V50     V55    10.0   .     S
V50     V53    10.0   .     S
V51     V53    10.0   .     S
V51     V55    10.0   .     S
V51     V56    10.0   1_554     S
V51     V69    10.0   1_455     S
V52     V54    10.0   .     S
V52     V56    10.0   .     S
V52     V55    10.0   .     S
V52     V70    10.0   1_455     S
V53     V55    10.0   .     S
V54     V56    10.0   .     S
V54     V49    10.0   1_556     S
V54     V17    10.0   1_556     S
V55     V57    10.0   .     S
V56     V49    10.0   1_556     S
V56     V51    10.0   1_556     S
V56     V58    10.0   .     S
V57     V61    10.0   .     S
V57     V59    10.0   .     S
V57     V63    10.0   .     S
V57     V64    10.0   .     S
V58     V62    10.0   .     S
V58     V60    10.0   .     S
V58     V64    10.0   .     S
V58     V63    10.0   1_556     S
V59     V61    10.0   .     S
V59     V63    10.0   .     S
V59     V62    10.0   1_554     S
V59     V4    10.0   1_554     S
V60     V62    10.0   .     S
V60     V64    10.0   .     S
V60     V61    10.0   .     S
V61     V64    10.0   .     S
V62     V63    10.0   1_556     S
V62     V59    10.0   1_556     S
V63     V62    10.0   1_554     S
V63     V58    10.0   1_554     S
V63     V9    10.0   1_545     S
V64     V10    10.0   1_545     S
V65     V70    10.0   .     S
V65     V71    10.0   .     S
V65     V67    10.0   .     S
V65     V69    10.0   .     S
V65     V27    10.0   1_545     S
V66     V69    10.0   1_556     S
V66     V72    10.0   .     S
V66     V68    10.0   .     S
V66     V70    10.0   .     S
V66     V28    10.0   1_545     S
V67     V46    10.0   1_554     S
V67     V69    10.0   .     S
V67     V72    10.0   1_554     S
V67     V71    10.0   .     S
V68     V70    10.0   .     S
V68     V71    10.0   .     S
V68     V72    10.0   .     S
V69     V72    10.0   1_554     S
V69     V66    10.0   1_554     S
V69     V51    10.0   1_655     S
V70     V71    10.0   .     S
V70     V52    10.0   1_655     S
V72     V69    10.0   1_556     S
V72     V67    10.0   1_556     S
