data_wlf
_audit_creation_date              2019-12-31
_audit_creation_method            'Pymatgen'
_symmetry_space_group_name_H-M    'P1'
_symmetry_Int_Tables_number       1
loop_
_symmetry_equiv_pos_as_xyz
  x,y,z
_cell_length_a                    64.5318
_cell_length_b                    64.5318
_cell_length_c                    33.9076
_cell_angle_alpha                 90.0
_cell_angle_beta                 90.0
_cell_angle_gamma                 120.0
loop_
_atom_site_label
_atom_site_type_symbol
_atom_site_fract_x
_atom_site_fract_y
_atom_site_fract_z
V1     V     0.2439   0.8383   0.2047
V2     V     0.2439   0.8383   0.7047
V3     V     0.0894   0.8284   0.1286
V4     V     0.0894   0.8284   0.6286
V5     V     0.1617   0.7561   0.4547
V6     V     0.1617   0.7561   0.9547
V7     V     0.1716   0.9106   0.3786
V8     V     0.1716   0.9106   0.8786
V9     V     0.505   0.5772   0.212
V10     V     0.505   0.5772   0.712
V11     V     0.495   0.4228   0.288
V12     V     0.495   0.4228   0.788
V13     V     0.5772   0.505   0.038
V14     V     0.5772   0.505   0.538
V15     V     0.4228   0.495   0.462
V16     V     0.4228   0.495   0.962
V17     V     0.4056   0.2439   0.2953
V18     V     0.4056   0.2439   0.7953
V19     V     0.2611   0.0894   0.3714
V20     V     0.2611   0.0894   0.8714
V21     V     0.4056   0.1617   0.0453
V22     V     0.4056   0.1617   0.5453
V23     V     0.2611   0.1717   0.1214
V24     V     0.2611   0.1717   0.6214
V25     V     0.0894   0.2611   0.3786
V26     V     0.0894   0.2611   0.8786
V27     V     0.2439   0.4056   0.4547
V28     V     0.2439   0.4056   0.9547
V29     V     0.1617   0.4056   0.2047
V30     V     0.1617   0.4056   0.7047
V31     V     0.1716   0.2611   0.1286
V32     V     0.1716   0.2611   0.6286
V33     V     0.7389   0.8284   0.3786
V34     V     0.7389   0.8284   0.8786
V35     V     0.5944   0.8383   0.4547
V36     V     0.5944   0.8383   0.9547
V37     V     0.7389   0.9106   0.1286
V38     V     0.7389   0.9106   0.6286
V39     V     0.5944   0.7561   0.2047
V40     V     0.5944   0.7561   0.7047
V41     V     0.5772   0.0722   0.288
V42     V     0.5772   0.0722   0.788
V43     V     0.4228   0.9278   0.212
V44     V     0.4228   0.9278   0.712
V45     V     0.495   0.0722   0.038
V46     V     0.495   0.0722   0.538
V47     V     0.505   0.9278   0.462
V48     V     0.505   0.9278   0.962
V49     V     0.7561   0.1617   0.2953
V50     V     0.7561   0.1617   0.7953
V51     V     0.9106   0.1717   0.3714
V52     V     0.9106   0.1717   0.8714
V53     V     0.8383   0.2439   0.0453
V54     V     0.8383   0.2439   0.5453
V55     V     0.8284   0.0894   0.1214
V56     V     0.8284   0.0894   0.6214
V57     V     0.8284   0.7389   0.3714
V58     V     0.8284   0.7389   0.8714
V59     V     0.8383   0.5944   0.2953
V60     V     0.8383   0.5944   0.7953
V61     V     0.9106   0.7389   0.1214
V62     V     0.9106   0.7389   0.6214
V63     V     0.7561   0.5944   0.0453
V64     V     0.7561   0.5944   0.5453
V65     V     0.0722   0.495   0.212
V66     V     0.0722   0.495   0.712
V67     V     0.9278   0.505   0.288
V68     V     0.9278   0.505   0.788
V69     V     0.0722   0.5772   0.462
V70     V     0.0722   0.5772   0.962
V71     V     0.9278   0.4228   0.038
V72     V     0.9278   0.4228   0.538
loop_
_geom_bond_atom_site_label_1
_geom_bond_atom_site_label_2
_geom_bond_distance
_geom_bond_site_symmetry_2
_ccdc_geom_bond_type
V1     V7    10.0   .     S
V1     V5    10.0   .     S
V1     V3    10.0   .     S
V1     V6    10.0   1_554     S
V1     V43    10.0   .     S
V2     V8    10.0   .     S
V2     V6    10.0   .     S
V2     V4    10.0   .     S
V2     V5    10.0   .     S
V2     V44    10.0   .     S
V3     V7    10.0   .     S
V3     V6    10.0   1_554     S
V3     V8    10.0   1_554     S
V3     V61    10.0   1_455     S
V4     V8    10.0   .     S
V4     V5    10.0   .     S
V4     V7    10.0   .     S
V4     V62    10.0   1_455     S
V5     V7    10.0   .     S
V5     V69    10.0   .     S
V6     V3    10.0   1_556     S
V6     V1    10.0   1_556     S
V6     V8    10.0   .     S
V6     V70    10.0   .     S
V7     V19    10.0   1_565     S
V8     V3    10.0   1_556     S
V8     V20    10.0   1_565     S
V9     V13    10.0   .     S
V9     V16    10.0   1_554     S
V9     V11    10.0   .     S
V9     V15    10.0   .     S
V9     V39    10.0   .     S
V10     V14    10.0   .     S
V10     V15    10.0   .     S
V10     V12    10.0   .     S
V10     V16    10.0   .     S
V10     V40    10.0   .     S
V11     V13    10.0   .     S
V11     V15    10.0   .     S
V11     V14    10.0   .     S
V11     V17    10.0   .     S
V12     V14    10.0   .     S
V12     V16    10.0   .     S
V12     V13    10.0   1_556     S
V12     V18    10.0   .     S
V13     V12    10.0   1_554     S
V13     V16    10.0   1_554     S
V13     V63    10.0   .     S
V14     V15    10.0   .     S
V14     V64    10.0   .     S
V15     V27    10.0   .     S
V16     V9    10.0   1_556     S
V16     V13    10.0   1_556     S
V16     V28    10.0   .     S
V17     V19    10.0   .     S
V17     V23    10.0   .     S
V17     V21    10.0   .     S
V17     V22    10.0   .     S
V18     V20    10.0   .     S
V18     V24    10.0   .     S
V18     V22    10.0   .     S
V18     V21    10.0   1_556     S
V19     V7    10.0   1_545     S
V19     V23    10.0   .     S
V19     V22    10.0   .     S
V19     V24    10.0   .     S
V20     V8    10.0   1_545     S
V20     V24    10.0   .     S
V20     V21    10.0   1_556     S
V20     V23    10.0   1_556     S
V21     V23    10.0   .     S
V21     V20    10.0   1_554     S
V21     V18    10.0   1_554     S
V21     V45    10.0   .     S
V22     V24    10.0   .     S
V22     V46    10.0   .     S
V23     V20    10.0   1_554     S
V23     V31    10.0   .     S
V24     V32    10.0   .     S
V25     V32    10.0   .     S
V25     V27    10.0   .     S
V25     V29    10.0   .     S
V25     V31    10.0   .     S
V25     V51    10.0   1_455     S
V26     V31    10.0   1_556     S
V26     V28    10.0   .     S
V26     V30    10.0   .     S
V26     V32    10.0   .     S
V26     V52    10.0   1_455     S
V27     V32    10.0   .     S
V27     V30    10.0   .     S
V27     V29    10.0   .     S
V28     V31    10.0   1_556     S
V28     V29    10.0   1_556     S
V28     V30    10.0   .     S
V29     V28    10.0   1_554     S
V29     V31    10.0   .     S
V29     V65    10.0   .     S
V30     V32    10.0   .     S
V30     V66    10.0   .     S
V31     V28    10.0   1_554     S
V31     V26    10.0   1_554     S
V33     V39    10.0   .     S
V33     V37    10.0   .     S
V33     V35    10.0   .     S
V33     V38    10.0   .     S
V33     V57    10.0   .     S
V34     V40    10.0   .     S
V34     V38    10.0   .     S
V34     V36    10.0   .     S
V34     V37    10.0   1_556     S
V34     V58    10.0   .     S
V35     V39    10.0   .     S
V35     V38    10.0   .     S
V35     V40    10.0   .     S
V35     V47    10.0   .     S
V36     V40    10.0   .     S
V36     V37    10.0   1_556     S
V36     V39    10.0   1_556     S
V36     V48    10.0   .     S
V37     V36    10.0   1_554     S
V37     V34    10.0   1_554     S
V37     V39    10.0   .     S
V37     V55    10.0   1_565     S
V38     V40    10.0   .     S
V38     V56    10.0   1_565     S
V39     V36    10.0   1_554     S
V41     V43    10.0   1_545     S
V41     V47    10.0   1_545     S
V41     V46    10.0   .     S
V41     V45    10.0   .     S
V41     V49    10.0   .     S
V42     V44    10.0   1_545     S
V42     V48    10.0   1_545     S
V42     V45    10.0   1_556     S
V42     V46    10.0   .     S
V42     V50    10.0   .     S
V43     V41    10.0   1_565     S
V43     V47    10.0   .     S
V43     V45    10.0   1_565     S
V43     V48    10.0   1_554     S
V44     V42    10.0   1_565     S
V44     V48    10.0   .     S
V44     V46    10.0   1_565     S
V44     V47    10.0   .     S
V45     V42    10.0   1_554     S
V45     V48    10.0   1_544     S
V45     V43    10.0   1_545     S
V46     V47    10.0   1_545     S
V46     V44    10.0   1_545     S
V47     V41    10.0   1_565     S
V47     V46    10.0   1_565     S
V48     V42    10.0   1_565     S
V48     V45    10.0   1_566     S
V48     V43    10.0   1_556     S
V49     V51    10.0   .     S
V49     V55    10.0   .     S
V49     V53    10.0   .     S
V49     V54    10.0   .     S
V50     V52    10.0   .     S
V50     V56    10.0   .     S
V50     V54    10.0   .     S
V50     V53    10.0   1_556     S
V51     V25    10.0   1_655     S
V51     V55    10.0   .     S
V51     V54    10.0   .     S
V51     V56    10.0   .     S
V52     V26    10.0   1_655     S
V52     V56    10.0   .     S
V52     V53    10.0   1_556     S
V52     V55    10.0   1_556     S
V53     V55    10.0   .     S
V53     V52    10.0   1_554     S
V53     V50    10.0   1_554     S
V53     V71    10.0   .     S
V54     V56    10.0   .     S
V54     V72    10.0   .     S
V55     V37    10.0   1_545     S
V55     V52    10.0   1_554     S
V56     V38    10.0   1_545     S
V57     V64    10.0   .     S
V57     V62    10.0   .     S
V57     V59    10.0   .     S
V57     V61    10.0   .     S
V58     V63    10.0   1_556     S
V58     V61    10.0   1_556     S
V58     V60    10.0   .     S
V58     V62    10.0   .     S
V59     V64    10.0   .     S
V59     V61    10.0   .     S
V59     V63    10.0   .     S
V59     V67    10.0   .     S
V60     V63    10.0   1_556     S
V60     V62    10.0   .     S
V60     V64    10.0   .     S
V60     V68    10.0   .     S
V61     V3    10.0   1_655     S
V61     V58    10.0   1_554     S
V61     V63    10.0   .     S
V62     V4    10.0   1_655     S
V62     V64    10.0   .     S
V63     V58    10.0   1_554     S
V63     V60    10.0   1_554     S
V65     V67    10.0   1_455     S
V65     V69    10.0   .     S
V65     V71    10.0   1_455     S
V65     V70    10.0   1_554     S
V66     V68    10.0   1_455     S
V66     V70    10.0   .     S
V66     V72    10.0   1_455     S
V66     V69    10.0   .     S
V67     V65    10.0   1_655     S
V67     V69    10.0   1_655     S
V67     V72    10.0   .     S
V67     V71    10.0   .     S
V68     V66    10.0   1_655     S
V68     V70    10.0   1_655     S
V68     V71    10.0   1_556     S
V68     V72    10.0   .     S
V69     V67    10.0   1_455     S
V69     V72    10.0   1_455     S
V70     V68    10.0   1_455     S
V70     V65    10.0   1_556     S
V70     V71    10.0   1_456     S
V71     V68    10.0   1_554     S
V71     V65    10.0   1_655     S
V71     V70    10.0   1_654     S
V72     V66    10.0   1_655     S
V72     V69    10.0   1_655     S
