data_wli
_audit_creation_date              2019-12-31
_audit_creation_method            'Pymatgen'
_symmetry_space_group_name_H-M    'P1'
_symmetry_Int_Tables_number       1
loop_
_symmetry_equiv_pos_as_xyz
  x,y,z
_cell_length_a                    22.625
_cell_length_b                    22.625
_cell_length_c                    30.0304
_cell_angle_alpha                 90.0
_cell_angle_beta                 90.0
_cell_angle_gamma                 120.0
loop_
_atom_site_label
_atom_site_type_symbol
_atom_site_fract_x
_atom_site_fract_y
_atom_site_fract_z
V1     V     0.1686   0.4156   0.0417
V2     V     0.1686   0.4156   0.5417
V3     V     0.4156   0.1686   0.4583
V4     V     0.4156   0.1686   0.9583
V5     V     0.2471   0.8314   0.2083
V6     V     0.2471   0.8314   0.7083
V7     V     0.5844   0.7529   0.375
V8     V     0.5844   0.7529   0.875
V9     V     0.7529   0.5844   0.125
V10     V     0.7529   0.5844   0.625
V11     V     0.8314   0.2471   0.2917
V12     V     0.8314   0.2471   0.7917
loop_
_geom_bond_atom_site_label_1
_geom_bond_atom_site_label_2
_geom_bond_distance
_geom_bond_site_symmetry_2
_ccdc_geom_bond_type
V1     V11    10.0   1_455     S
V1     V5    10.0   .     S
V1     V4    10.0   1_554     S
V1     V8    10.0   1_554     S
V1     V12    10.0   1_454     S
V2     V12    10.0   1_455     S
V2     V6    10.0   .     S
V2     V3    10.0   .     S
V2     V7    10.0   .     S
V2     V11    10.0   1_455     S
V3     V11    10.0   .     S
V3     V5    10.0   1_545     S
V3     V10    10.0   .     S
V3     V6    10.0   1_545     S
V4     V12    10.0   .     S
V4     V1    10.0   1_556     S
V4     V6    10.0   1_545     S
V4     V9    10.0   1_556     S
V4     V5    10.0   1_546     S
V5     V3    10.0   1_565     S
V5     V7    10.0   .     S
V5     V9    10.0   1_455     S
V5     V4    10.0   1_564     S
V6     V4    10.0   1_565     S
V6     V8    10.0   .     S
V6     V10    10.0   1_455     S
V6     V3    10.0   1_565     S
V7     V10    10.0   .     S
V7     V11    10.0   1_565     S
V7     V9    10.0   .     S
V8     V9    10.0   1_556     S
V8     V1    10.0   1_556     S
V8     V12    10.0   1_565     S
V8     V10    10.0   .     S
V9     V5    10.0   1_655     S
V9     V8    10.0   1_554     S
V9     V4    10.0   1_554     S
V9     V11    10.0   .     S
V10     V6    10.0   1_655     S
V10     V12    10.0   .     S
V11     V1    10.0   1_655     S
V11     V7    10.0   1_545     S
V11     V2    10.0   1_655     S
V12     V2    10.0   1_655     S
V12     V8    10.0   1_545     S
V12     V1    10.0   1_656     S
