data_wlk
_audit_creation_date              2019-12-31
_audit_creation_method            'Pymatgen'
_symmetry_space_group_name_H-M    'P1'
_symmetry_Int_Tables_number       1
loop_
_symmetry_equiv_pos_as_xyz
  x,y,z
_cell_length_a                    38.0336
_cell_length_b                    38.0336
_cell_length_c                    35.8946
_cell_angle_alpha                 90.0
_cell_angle_beta                 90.0
_cell_angle_gamma                 120.0
loop_
_atom_site_label
_atom_site_type_symbol
_atom_site_fract_x
_atom_site_fract_y
_atom_site_fract_z
V1     V     0.8596   0.5995   0.2257
V2     V     0.8596   0.5995   0.7257
V3     V     0.8071   0.7338   0.441
V4     V     0.8071   0.7338   0.941
V5     V     0.7338   0.9268   0.059
V6     V     0.7338   0.9268   0.559
V7     V     0.5995   0.7399   0.2743
V8     V     0.5995   0.7399   0.7743
V9     V     0.4066   0.4737   0.3924
V10     V     0.4066   0.4737   0.8924
V11     V     0.5934   0.5263   0.1076
V12     V     0.5934   0.5263   0.6076
V13     V     0.9268   0.1929   0.441
V14     V     0.9268   0.1929   0.941
V15     V     0.7399   0.1404   0.2257
V16     V     0.7399   0.1404   0.7257
V17     V     0.9328   0.4066   0.1076
V18     V     0.9328   0.4066   0.6076
V19     V     0.0672   0.5934   0.3924
V20     V     0.0672   0.5934   0.8924
V21     V     0.4737   0.0672   0.1076
V22     V     0.4737   0.0672   0.6076
V23     V     0.5263   0.9328   0.3924
V24     V     0.5263   0.9328   0.8924
V25     V     0.2601   0.8596   0.2743
V26     V     0.2601   0.8596   0.7743
V27     V     0.0732   0.8071   0.059
V28     V     0.0732   0.8071   0.559
V29     V     0.1929   0.2662   0.059
V30     V     0.1929   0.2662   0.559
V31     V     0.1404   0.4005   0.2743
V32     V     0.1404   0.4005   0.7743
V33     V     0.4005   0.2601   0.2257
V34     V     0.4005   0.2601   0.7257
V35     V     0.2662   0.0732   0.441
V36     V     0.2662   0.0732   0.941
loop_
_geom_bond_atom_site_label_1
_geom_bond_atom_site_label_2
_geom_bond_distance
_geom_bond_site_symmetry_2
_ccdc_geom_bond_type
V1     V19    10.0   1_655     S
V1     V3    10.0   .     S
V1     V11    10.0   .     S
V1     V17    10.0   .     S
V1     V27    10.0   1_655     S
V2     V20    10.0   1_655     S
V2     V4    10.0   .     S
V2     V12    10.0   .     S
V2     V18    10.0   .     S
V2     V28    10.0   1_655     S
V3     V7    10.0   .     S
V3     V6    10.0   .     S
V3     V12    10.0   .     S
V3     V28    10.0   1_655     S
V4     V8    10.0   .     S
V4     V5    10.0   1_556     S
V4     V11    10.0   1_556     S
V4     V27    10.0   1_656     S
V5     V15    10.0   1_565     S
V5     V7    10.0   .     S
V5     V4    10.0   1_554     S
V5     V14    10.0   1_564     S
V5     V24    10.0   1_554     S
V6     V16    10.0   1_565     S
V6     V8    10.0   .     S
V6     V13    10.0   1_565     S
V6     V23    10.0   .     S
V7     V11    10.0   .     S
V7     V23    10.0   .     S
V7     V9    10.0   .     S
V8     V12    10.0   .     S
V8     V24    10.0   .     S
V8     V10    10.0   .     S
V9     V30    10.0   .     S
V9     V12    10.0   .     S
V9     V31    10.0   .     S
V9     V33    10.0   .     S
V10     V29    10.0   1_556     S
V10     V11    10.0   1_556     S
V10     V32    10.0   .     S
V10     V34    10.0   .     S
V11     V10    10.0   1_554     S
V11     V4    10.0   1_554     S
V11     V33    10.0   .     S
V12     V34    10.0   .     S
V13     V6    10.0   1_545     S
V13     V31    10.0   1_655     S
V13     V15    10.0   .     S
V13     V30    10.0   1_655     S
V13     V18    10.0   .     S
V14     V5    10.0   1_546     S
V14     V32    10.0   1_655     S
V14     V16    10.0   .     S
V14     V29    10.0   1_656     S
V14     V17    10.0   1_556     S
V15     V5    10.0   1_545     S
V15     V23    10.0   1_545     S
V15     V17    10.0   .     S
V15     V21    10.0   .     S
V16     V6    10.0   1_545     S
V16     V24    10.0   1_545     S
V16     V18    10.0   .     S
V16     V22    10.0   .     S
V17     V14    10.0   1_554     S
V17     V20    10.0   1_654     S
V17     V31    10.0   1_655     S
V18     V19    10.0   1_655     S
V18     V32    10.0   1_655     S
V19     V1    10.0   1_455     S
V19     V18    10.0   1_455     S
V19     V28    10.0   .     S
V19     V25    10.0   .     S
V19     V31    10.0   .     S
V20     V2    10.0   1_455     S
V20     V17    10.0   1_456     S
V20     V27    10.0   1_556     S
V20     V26    10.0   .     S
V20     V32    10.0   .     S
V21     V36    10.0   1_554     S
V21     V24    10.0   1_544     S
V21     V25    10.0   1_545     S
V21     V33    10.0   .     S
V22     V35    10.0   .     S
V22     V23    10.0   1_545     S
V22     V26    10.0   1_545     S
V22     V34    10.0   .     S
V23     V15    10.0   1_565     S
V23     V22    10.0   1_565     S
V23     V25    10.0   .     S
V24     V16    10.0   1_565     S
V24     V21    10.0   1_566     S
V24     V5    10.0   1_556     S
V24     V26    10.0   .     S
V25     V21    10.0   1_565     S
V25     V27    10.0   .     S
V25     V35    10.0   1_565     S
V26     V22    10.0   1_565     S
V26     V28    10.0   .     S
V26     V36    10.0   1_565     S
V27     V20    10.0   1_554     S
V27     V1    10.0   1_455     S
V27     V36    10.0   1_564     S
V27     V4    10.0   1_454     S
V28     V2    10.0   1_455     S
V28     V35    10.0   1_565     S
V28     V3    10.0   1_455     S
V29     V10    10.0   1_554     S
V29     V14    10.0   1_454     S
V29     V33    10.0   .     S
V29     V31    10.0   .     S
V29     V36    10.0   1_554     S
V30     V13    10.0   1_455     S
V30     V34    10.0   .     S
V30     V32    10.0   .     S
V30     V35    10.0   .     S
V31     V13    10.0   1_455     S
V31     V17    10.0   1_455     S
V32     V14    10.0   1_455     S
V32     V18    10.0   1_455     S
V33     V35    10.0   .     S
V34     V36    10.0   .     S
V35     V28    10.0   1_545     S
V35     V25    10.0   1_545     S
V36     V21    10.0   1_556     S
V36     V27    10.0   1_546     S
V36     V26    10.0   1_545     S
V36     V29    10.0   1_556     S
