data_wlm
_audit_creation_date              2019-12-31
_audit_creation_method            'Pymatgen'
_symmetry_space_group_name_H-M    'P1'
_symmetry_Int_Tables_number       1
loop_
_symmetry_equiv_pos_as_xyz
  x,y,z
_cell_length_a                    81.3141
_cell_length_b                    81.3141
_cell_length_c                    30.0
_cell_angle_alpha                 90.0
_cell_angle_beta                 90.0
_cell_angle_gamma                 120.0
loop_
_atom_site_label
_atom_site_type_symbol
_atom_site_fract_x
_atom_site_fract_y
_atom_site_fract_z
V1     V     0.0692   0.5961   0.0369
V2     V     0.0692   0.5961   0.3702
V3     V     0.0692   0.5961   0.7036
V4     V     0.1398   0.7372   0.0742
V5     V     0.1398   0.7372   0.4076
V6     V     0.1398   0.7372   0.7409
V7     V     0.2628   0.8602   0.0742
V8     V     0.2628   0.8602   0.4076
V9     V     0.2628   0.8602   0.7409
V10     V     0.4039   0.9308   0.0369
V11     V     0.4039   0.9308   0.3702
V12     V     0.4039   0.9308   0.7036
V13     V     0.2628   0.4026   0.0742
V14     V     0.2628   0.4026   0.4076
V15     V     0.2628   0.4026   0.7409
V16     V     0.4039   0.4731   0.0369
V17     V     0.4039   0.4731   0.3702
V18     V     0.4039   0.4731   0.7036
V19     V     0.0692   0.4731   0.0369
V20     V     0.0692   0.4731   0.3702
V21     V     0.0692   0.4731   0.7036
V22     V     0.1398   0.4026   0.0742
V23     V     0.1398   0.4026   0.4076
V24     V     0.1398   0.4026   0.7409
V25     V     0.5269   0.5961   0.0369
V26     V     0.5269   0.5961   0.3702
V27     V     0.5269   0.5961   0.7036
V28     V     0.5974   0.7372   0.0742
V29     V     0.5974   0.7372   0.4076
V30     V     0.5974   0.7372   0.7409
V31     V     0.5269   0.9308   0.0369
V32     V     0.5269   0.9308   0.3702
V33     V     0.5269   0.9308   0.7036
V34     V     0.5974   0.8602   0.0742
V35     V     0.5974   0.8602   0.4076
V36     V     0.5974   0.8602   0.7409
V37     V     0.9308   0.5269   0.2964
V38     V     0.9308   0.5269   0.6298
V39     V     0.9308   0.5269   0.9631
V40     V     0.8602   0.5974   0.2591
V41     V     0.8602   0.5974   0.5924
V42     V     0.8602   0.5974   0.9258
V43     V     0.8602   0.2628   0.2591
V44     V     0.8602   0.2628   0.5924
V45     V     0.8602   0.2628   0.9258
V46     V     0.9308   0.4039   0.2964
V47     V     0.9308   0.4039   0.6298
V48     V     0.9308   0.4039   0.9631
V49     V     0.5961   0.5269   0.2964
V50     V     0.5961   0.5269   0.6298
V51     V     0.5961   0.5269   0.9631
V52     V     0.7372   0.5974   0.2591
V53     V     0.7372   0.5974   0.5924
V54     V     0.7372   0.5974   0.9258
V55     V     0.5961   0.0692   0.2964
V56     V     0.5961   0.0692   0.6298
V57     V     0.5961   0.0692   0.9631
V58     V     0.7372   0.1398   0.2591
V59     V     0.7372   0.1398   0.5924
V60     V     0.7372   0.1398   0.9258
V61     V     0.4731   0.0692   0.2964
V62     V     0.4731   0.0692   0.6298
V63     V     0.4731   0.0692   0.9631
V64     V     0.4026   0.1398   0.2591
V65     V     0.4026   0.1398   0.5924
V66     V     0.4026   0.1398   0.9258
V67     V     0.4731   0.4039   0.2964
V68     V     0.4731   0.4039   0.6298
V69     V     0.4731   0.4039   0.9631
V70     V     0.4026   0.2628   0.2591
V71     V     0.4026   0.2628   0.5924
V72     V     0.4026   0.2628   0.9258
V73     V     0.8065   0.7359   0.1853
V74     V     0.8065   0.7359   0.5187
V75     V     0.8065   0.7359   0.852
V76     V     0.7359   0.8065   0.148
V77     V     0.7359   0.8065   0.4813
V78     V     0.7359   0.8065   0.8147
V79     V     0.9294   0.7359   0.1853
V80     V     0.9294   0.7359   0.5187
V81     V     0.9294   0.7359   0.852
V82     V     0.0706   0.8065   0.148
V83     V     0.0706   0.8065   0.4813
V84     V     0.0706   0.8065   0.8147
V85     V     0.8065   0.0706   0.1853
V86     V     0.8065   0.0706   0.5187
V87     V     0.8065   0.0706   0.852
V88     V     0.7359   0.9294   0.148
V89     V     0.7359   0.9294   0.4813
V90     V     0.7359   0.9294   0.8147
V91     V     0.9294   0.1935   0.1853
V92     V     0.9294   0.1935   0.5187
V93     V     0.9294   0.1935   0.852
V94     V     0.0706   0.2641   0.148
V95     V     0.0706   0.2641   0.4813
V96     V     0.0706   0.2641   0.8147
V97     V     0.2641   0.0706   0.1853
V98     V     0.2641   0.0706   0.5187
V99     V     0.2641   0.0706   0.852
V100     V     0.1935   0.9294   0.148
V101     V     0.1935   0.9294   0.4813
V102     V     0.1935   0.9294   0.8147
V103     V     0.1935   0.2641   0.148
V104     V     0.1935   0.2641   0.4813
V105     V     0.1935   0.2641   0.8147
V106     V     0.2641   0.1935   0.1853
V107     V     0.2641   0.1935   0.5187
V108     V     0.2641   0.1935   0.852
loop_
_geom_bond_atom_site_label_1
_geom_bond_atom_site_label_2
_geom_bond_distance
_geom_bond_site_symmetry_2
_ccdc_geom_bond_type
V1     V39    10.001   1_454     S
V1     V4    10.0   .     S
V1     V2    10.0   .     S
V1     V3    10.0   1_554     S
V1     V19    10.0   .     S
V2     V37    10.001   1_455     S
V2     V5    10.0   .     S
V2     V3    10.0   .     S
V2     V20    10.0   .     S
V3     V38    10.001   1_455     S
V3     V6    10.0   .     S
V3     V1    10.0   1_556     S
V3     V21    10.0   .     S
V4     V82    10.001   .     S
V4     V5    10.0   .     S
V4     V6    10.0   1_554     S
V4     V7    10.0   .     S
V5     V83    10.001   .     S
V5     V6    10.0   .     S
V5     V8    10.0   .     S
V6     V84    10.001   .     S
V6     V4    10.0   1_556     S
V6     V9    10.0   .     S
V7     V100    10.001   .     S
V7     V10    10.0   .     S
V7     V8    10.0   .     S
V7     V9    10.0   1_554     S
V8     V101    10.001   .     S
V8     V11    10.0   .     S
V8     V9    10.0   .     S
V9     V102    10.001   .     S
V9     V12    10.0   .     S
V9     V7    10.0   1_556     S
V10     V63    10.001   1_564     S
V10     V11    10.0   .     S
V10     V12    10.0   1_554     S
V10     V31    10.0   .     S
V11     V61    10.001   1_565     S
V11     V12    10.0   .     S
V11     V32    10.0   .     S
V12     V62    10.001   1_565     S
V12     V10    10.0   1_556     S
V12     V33    10.0   .     S
V13     V16    10.0   .     S
V13     V14    10.0   .     S
V13     V15    10.0   1_554     S
V13     V22    10.0   .     S
V13     V103    10.001   .     S
V14     V17    10.0   .     S
V14     V15    10.0   .     S
V14     V23    10.0   .     S
V14     V104    10.001   .     S
V15     V18    10.0   .     S
V15     V13    10.0   1_556     S
V15     V24    10.0   .     S
V15     V105    10.001   .     S
V16     V69    10.001   1_554     S
V16     V17    10.0   .     S
V16     V18    10.0   1_554     S
V16     V25    10.0   .     S
V17     V67    10.001   .     S
V17     V18    10.0   .     S
V17     V26    10.0   .     S
V18     V68    10.001   .     S
V18     V16    10.0   1_556     S
V18     V27    10.0   .     S
V19     V48    10.001   1_454     S
V19     V22    10.0   .     S
V19     V20    10.0   .     S
V19     V21    10.0   1_554     S
V20     V46    10.001   1_455     S
V20     V23    10.0   .     S
V20     V21    10.0   .     S
V21     V47    10.001   1_455     S
V21     V24    10.0   .     S
V21     V19    10.0   1_556     S
V22     V94    10.001   .     S
V22     V23    10.0   .     S
V22     V24    10.0   1_554     S
V23     V95    10.001   .     S
V23     V24    10.0   .     S
V24     V96    10.001   .     S
V24     V22    10.0   1_556     S
V25     V28    10.0   .     S
V25     V26    10.0   .     S
V25     V27    10.0   1_554     S
V25     V51    10.001   1_554     S
V26     V29    10.0   .     S
V26     V27    10.0   .     S
V26     V49    10.001   .     S
V27     V30    10.0   .     S
V27     V25    10.0   1_556     S
V27     V50    10.001   .     S
V28     V29    10.0   .     S
V28     V30    10.0   1_554     S
V28     V34    10.0   .     S
V28     V76    10.001   .     S
V29     V30    10.0   .     S
V29     V35    10.0   .     S
V29     V77    10.001   .     S
V30     V28    10.0   1_556     S
V30     V36    10.0   .     S
V30     V78    10.001   .     S
V31     V57    10.001   1_564     S
V31     V34    10.0   .     S
V31     V32    10.0   .     S
V31     V33    10.0   1_554     S
V32     V55    10.001   1_565     S
V32     V35    10.0   .     S
V32     V33    10.0   .     S
V33     V56    10.001   1_565     S
V33     V36    10.0   .     S
V33     V31    10.0   1_556     S
V34     V88    10.001   .     S
V34     V35    10.0   .     S
V34     V36    10.0   1_554     S
V35     V89    10.001   .     S
V35     V36    10.0   .     S
V36     V90    10.001   .     S
V36     V34    10.0   1_556     S
V37     V2    10.001   1_655     S
V37     V40    10.0   .     S
V37     V39    10.0   1_554     S
V37     V38    10.0   .     S
V37     V46    10.0   .     S
V38     V3    10.001   1_655     S
V38     V41    10.0   .     S
V38     V39    10.0   .     S
V38     V47    10.0   .     S
V39     V1    10.001   1_656     S
V39     V42    10.0   .     S
V39     V37    10.0   1_556     S
V39     V48    10.0   .     S
V40     V79    10.001   .     S
V40     V42    10.0   1_554     S
V40     V41    10.0   .     S
V40     V52    10.0   .     S
V41     V80    10.001   .     S
V41     V42    10.0   .     S
V41     V53    10.0   .     S
V42     V81    10.001   .     S
V42     V40    10.0   1_556     S
V42     V54    10.0   .     S
V43     V91    10.001   .     S
V43     V46    10.0   .     S
V43     V45    10.0   1_554     S
V43     V44    10.0   .     S
V43     V58    10.0   .     S
V44     V92    10.001   .     S
V44     V47    10.0   .     S
V44     V45    10.0   .     S
V44     V59    10.0   .     S
V45     V93    10.001   .     S
V45     V48    10.0   .     S
V45     V43    10.0   1_556     S
V45     V60    10.0   .     S
V46     V20    10.001   1_655     S
V46     V48    10.0   1_554     S
V46     V47    10.0   .     S
V47     V21    10.001   1_655     S
V47     V48    10.0   .     S
V48     V19    10.001   1_656     S
V48     V46    10.0   1_556     S
V49     V52    10.0   .     S
V49     V51    10.0   1_554     S
V49     V50    10.0   .     S
V49     V67    10.0   .     S
V50     V53    10.0   .     S
V50     V51    10.0   .     S
V50     V68    10.0   .     S
V51     V25    10.001   1_556     S
V51     V54    10.0   .     S
V51     V49    10.0   1_556     S
V51     V69    10.0   .     S
V52     V54    10.0   1_554     S
V52     V53    10.0   .     S
V52     V73    10.001   .     S
V53     V54    10.0   .     S
V53     V74    10.001   .     S
V54     V52    10.0   1_556     S
V54     V75    10.001   .     S
V55     V32    10.001   1_545     S
V55     V58    10.0   .     S
V55     V57    10.0   1_554     S
V55     V56    10.0   .     S
V55     V61    10.0   .     S
V56     V33    10.001   1_545     S
V56     V59    10.0   .     S
V56     V57    10.0   .     S
V56     V62    10.0   .     S
V57     V31    10.001   1_546     S
V57     V60    10.0   .     S
V57     V55    10.0   1_556     S
V57     V63    10.0   .     S
V58     V85    10.001   .     S
V58     V60    10.0   1_554     S
V58     V59    10.0   .     S
V59     V86    10.001   .     S
V59     V60    10.0   .     S
V60     V87    10.001   .     S
V60     V58    10.0   1_556     S
V61     V11    10.001   1_545     S
V61     V64    10.0   .     S
V61     V63    10.0   1_554     S
V61     V62    10.0   .     S
V62     V12    10.001   1_545     S
V62     V65    10.0   .     S
V62     V63    10.0   .     S
V63     V10    10.001   1_546     S
V63     V66    10.0   .     S
V63     V61    10.0   1_556     S
V64     V97    10.001   .     S
V64     V66    10.0   1_554     S
V64     V65    10.0   .     S
V64     V70    10.0   .     S
V65     V98    10.001   .     S
V65     V66    10.0   .     S
V65     V71    10.0   .     S
V66     V99    10.001   .     S
V66     V64    10.0   1_556     S
V66     V72    10.0   .     S
V67     V70    10.0   .     S
V67     V69    10.0   1_554     S
V67     V68    10.0   .     S
V68     V71    10.0   .     S
V68     V69    10.0   .     S
V69     V16    10.001   1_556     S
V69     V72    10.0   .     S
V69     V67    10.0   1_556     S
V70     V72    10.0   1_554     S
V70     V71    10.0   .     S
V70     V106    10.001   .     S
V71     V72    10.0   .     S
V71     V107    10.001   .     S
V72     V70    10.0   1_556     S
V72     V108    10.001   .     S
V73     V76    10.0   .     S
V73     V75    10.0   1_554     S
V73     V74    10.0   .     S
V73     V79    10.0   .     S
V74     V77    10.0   .     S
V74     V75    10.0   .     S
V74     V80    10.0   .     S
V75     V78    10.0   .     S
V75     V73    10.0   1_556     S
V75     V81    10.0   .     S
V76     V77    10.0   .     S
V76     V78    10.0   1_554     S
V76     V88    10.0   .     S
V77     V78    10.0   .     S
V77     V89    10.0   .     S
V78     V76    10.0   1_556     S
V78     V90    10.0   .     S
V79     V82    10.0   1_655     S
V79     V81    10.0   1_554     S
V79     V80    10.0   .     S
V80     V83    10.0   1_655     S
V80     V81    10.0   .     S
V81     V84    10.0   1_655     S
V81     V79    10.0   1_556     S
V82     V79    10.0   1_455     S
V82     V83    10.0   .     S
V82     V84    10.0   1_554     S
V82     V100    10.0   .     S
V83     V80    10.0   1_455     S
V83     V84    10.0   .     S
V83     V101    10.0   .     S
V84     V81    10.0   1_455     S
V84     V82    10.0   1_556     S
V84     V102    10.0   .     S
V85     V88    10.0   1_545     S
V85     V87    10.0   1_554     S
V85     V86    10.0   .     S
V85     V91    10.0   .     S
V86     V89    10.0   1_545     S
V86     V87    10.0   .     S
V86     V92    10.0   .     S
V87     V90    10.0   1_545     S
V87     V85    10.0   1_556     S
V87     V93    10.0   .     S
V88     V85    10.0   1_565     S
V88     V89    10.0   .     S
V88     V90    10.0   1_554     S
V89     V86    10.0   1_565     S
V89     V90    10.0   .     S
V90     V87    10.0   1_565     S
V90     V88    10.0   1_556     S
V91     V94    10.0   1_655     S
V91     V93    10.0   1_554     S
V91     V92    10.0   .     S
V92     V95    10.0   1_655     S
V92     V93    10.0   .     S
V93     V96    10.0   1_655     S
V93     V91    10.0   1_556     S
V94     V91    10.0   1_455     S
V94     V95    10.0   .     S
V94     V96    10.0   1_554     S
V94     V103    10.0   .     S
V95     V92    10.0   1_455     S
V95     V96    10.0   .     S
V95     V104    10.0   .     S
V96     V93    10.0   1_455     S
V96     V94    10.0   1_556     S
V96     V105    10.0   .     S
V97     V100    10.0   1_545     S
V97     V99    10.0   1_554     S
V97     V98    10.0   .     S
V97     V106    10.0   .     S
V98     V101    10.0   1_545     S
V98     V99    10.0   .     S
V98     V107    10.0   .     S
V99     V102    10.0   1_545     S
V99     V97    10.0   1_556     S
V99     V108    10.0   .     S
V100     V97    10.0   1_565     S
V100     V101    10.0   .     S
V100     V102    10.0   1_554     S
V101     V98    10.0   1_565     S
V101     V102    10.0   .     S
V102     V99    10.0   1_565     S
V102     V100    10.0   1_556     S
V103     V106    10.0   .     S
V103     V104    10.0   .     S
V103     V105    10.0   1_554     S
V104     V107    10.0   .     S
V104     V105    10.0   .     S
V105     V108    10.0   .     S
V105     V103    10.0   1_556     S
V106     V108    10.0   1_554     S
V106     V107    10.0   .     S
V107     V108    10.0   .     S
V108     V106    10.0   1_556     S
