data_wln
_audit_creation_date              2019-12-31
_audit_creation_method            'Pymatgen'
_symmetry_space_group_name_H-M    'P1'
_symmetry_Int_Tables_number       1
loop_
_symmetry_equiv_pos_as_xyz
  x,y,z
_cell_length_a                    79.2939
_cell_length_b                    79.2939
_cell_length_c                    30.0
_cell_angle_alpha                 90.0
_cell_angle_beta                 90.0
_cell_angle_gamma                 120.0
loop_
_atom_site_label
_atom_site_type_symbol
_atom_site_fract_x
_atom_site_fract_y
_atom_site_fract_z
V1     V     0.2679   0.197   0.1286
V2     V     0.2679   0.197   0.4619
V3     V     0.2679   0.197   0.7952
V4     V     0.197   0.2679   0.2048
V5     V     0.197   0.2679   0.5381
V6     V     0.197   0.2679   0.8714
V7     V     0.3988   0.1363   0.3159
V8     V     0.3988   0.1363   0.6492
V9     V     0.3988   0.1363   0.9826
V10     V     0.4697   0.0655   0.2397
V11     V     0.4697   0.0655   0.573
V12     V     0.4697   0.0655   0.9063
V13     V     0.7321   0.803   0.2048
V14     V     0.7321   0.803   0.5381
V15     V     0.7321   0.803   0.8714
V16     V     0.803   0.7321   0.1286
V17     V     0.803   0.7321   0.4619
V18     V     0.803   0.7321   0.7952
V19     V     0.8637   0.2624   0.3159
V20     V     0.8637   0.2624   0.6492
V21     V     0.8637   0.2624   0.9826
V22     V     0.7375   0.1363   0.3159
V23     V     0.7375   0.1363   0.6492
V24     V     0.7375   0.1363   0.9826
V25     V     0.9345   0.5303   0.2397
V26     V     0.9345   0.5303   0.573
V27     V     0.9345   0.5303   0.9063
V28     V     0.9345   0.4042   0.2397
V29     V     0.9345   0.4042   0.573
V30     V     0.9345   0.4042   0.9063
V31     V     0.5958   0.0655   0.2397
V32     V     0.5958   0.0655   0.573
V33     V     0.5958   0.0655   0.9063
V34     V     0.8637   0.6012   0.3159
V35     V     0.8637   0.6012   0.6492
V36     V     0.8637   0.6012   0.9826
V37     V     0.7376   0.6012   0.3159
V38     V     0.7376   0.6012   0.6492
V39     V     0.7376   0.6012   0.9826
V40     V     0.5958   0.5303   0.2397
V41     V     0.5958   0.5303   0.573
V42     V     0.5958   0.5303   0.9063
V43     V     0.4697   0.4042   0.2397
V44     V     0.4697   0.4042   0.573
V45     V     0.4697   0.4042   0.9063
V46     V     0.3988   0.2624   0.3159
V47     V     0.3988   0.2624   0.6492
V48     V     0.3988   0.2624   0.9826
V49     V     0.2624   0.3988   0.0174
V50     V     0.2624   0.3988   0.3508
V51     V     0.2624   0.3988   0.6841
V52     V     0.5303   0.9345   0.0937
V53     V     0.5303   0.9345   0.427
V54     V     0.5303   0.9345   0.7603
V55     V     0.4042   0.9345   0.0937
V56     V     0.4042   0.9345   0.427
V57     V     0.4042   0.9345   0.7603
V58     V     0.2624   0.8637   0.0174
V59     V     0.2624   0.8637   0.3508
V60     V     0.2624   0.8637   0.6841
V61     V     0.1363   0.7375   0.0174
V62     V     0.1363   0.7375   0.3508
V63     V     0.1363   0.7375   0.6841
V64     V     0.4042   0.4697   0.0937
V65     V     0.4042   0.4697   0.427
V66     V     0.4042   0.4697   0.7603
V67     V     0.5303   0.5958   0.0937
V68     V     0.5303   0.5958   0.427
V69     V     0.5303   0.5958   0.7603
V70     V     0.6012   0.8637   0.0174
V71     V     0.6012   0.8637   0.3508
V72     V     0.6012   0.8637   0.6841
V73     V     0.6012   0.7375   0.0174
V74     V     0.6012   0.7375   0.3508
V75     V     0.6012   0.7375   0.6841
V76     V     0.0655   0.5958   0.0937
V77     V     0.0655   0.5958   0.427
V78     V     0.0655   0.5958   0.7603
V79     V     0.2679   0.0709   0.1286
V80     V     0.2679   0.0709   0.4619
V81     V     0.2679   0.0709   0.7952
V82     V     0.197   0.9291   0.2048
V83     V     0.197   0.9291   0.5381
V84     V     0.197   0.9291   0.8714
V85     V     0.0709   0.803   0.2048
V86     V     0.0709   0.803   0.5381
V87     V     0.0709   0.803   0.8714
V88     V     0.9291   0.7321   0.1286
V89     V     0.9291   0.7321   0.4619
V90     V     0.9291   0.7321   0.7952
V91     V     0.1363   0.3988   0.0174
V92     V     0.1363   0.3988   0.3508
V93     V     0.1363   0.3988   0.6841
V94     V     0.0655   0.4697   0.0937
V95     V     0.0655   0.4697   0.427
V96     V     0.0655   0.4697   0.7603
V97     V     0.7321   0.9291   0.2048
V98     V     0.7321   0.9291   0.5381
V99     V     0.7321   0.9291   0.8714
V100     V     0.0709   0.2679   0.2048
V101     V     0.0709   0.2679   0.5381
V102     V     0.0709   0.2679   0.8714
V103     V     0.803   0.0709   0.1286
V104     V     0.803   0.0709   0.4619
V105     V     0.803   0.0709   0.7952
V106     V     0.9291   0.197   0.1286
V107     V     0.9291   0.197   0.4619
V108     V     0.9291   0.197   0.7952
loop_
_geom_bond_atom_site_label_1
_geom_bond_atom_site_label_2
_geom_bond_distance
_geom_bond_site_symmetry_2
_ccdc_geom_bond_type
V1     V4    10.0   .     S
V1     V48    10.0   1_554     S
V1     V79    10.0   .     S
V1     V2    10.0   .     S
V1     V3    10.0   1_554     S
V2     V5    10.0   .     S
V2     V46    10.0   .     S
V2     V80    10.0   .     S
V2     V3    10.0   .     S
V3     V6    10.0   .     S
V3     V47    10.0   .     S
V3     V81    10.0   .     S
V3     V1    10.0   1_556     S
V4     V50    10.0   .     S
V4     V100    10.0   .     S
V4     V6    10.0   1_554     S
V4     V5    10.0   .     S
V5     V51    10.0   .     S
V5     V101    10.0   .     S
V5     V6    10.0   .     S
V6     V49    10.0   1_556     S
V6     V102    10.0   .     S
V6     V4    10.0   1_556     S
V7     V80    10.0   .     S
V7     V46    10.0   .     S
V7     V10    10.0   .     S
V7     V9    10.0   1_554     S
V7     V8    10.0   .     S
V8     V81    10.0   .     S
V8     V47    10.0   .     S
V8     V11    10.0   .     S
V8     V9    10.0   .     S
V9     V79    10.0   1_556     S
V9     V48    10.0   .     S
V9     V12    10.0   .     S
V9     V7    10.0   1_556     S
V10     V55    10.0   1_545     S
V10     V31    10.0   .     S
V10     V12    10.0   1_554     S
V10     V11    10.0   .     S
V11     V56    10.0   1_545     S
V11     V32    10.0   .     S
V11     V12    10.0   .     S
V12     V57    10.0   1_545     S
V12     V33    10.0   .     S
V12     V10    10.0   1_556     S
V13     V74    10.0   .     S
V13     V97    10.0   .     S
V13     V16    10.0   .     S
V13     V15    10.0   1_554     S
V13     V14    10.0   .     S
V14     V75    10.0   .     S
V14     V98    10.0   .     S
V14     V17    10.0   .     S
V14     V15    10.0   .     S
V15     V73    10.0   1_556     S
V15     V99    10.0   .     S
V15     V18    10.0   .     S
V15     V13    10.0   1_556     S
V16     V39    10.0   1_554     S
V16     V88    10.0   .     S
V16     V17    10.0   .     S
V16     V18    10.0   1_554     S
V17     V37    10.0   .     S
V17     V89    10.0   .     S
V17     V18    10.0   .     S
V18     V38    10.0   .     S
V18     V90    10.0   .     S
V18     V16    10.0   1_556     S
V19     V107    10.0   .     S
V19     V22    10.0   .     S
V19     V28    10.0   .     S
V19     V21    10.0   1_554     S
V19     V20    10.0   .     S
V20     V108    10.0   .     S
V20     V23    10.0   .     S
V20     V29    10.0   .     S
V20     V21    10.0   .     S
V21     V106    10.0   1_556     S
V21     V24    10.0   .     S
V21     V30    10.0   .     S
V21     V19    10.0   1_556     S
V22     V104    10.0   .     S
V22     V31    10.0   .     S
V22     V24    10.0   1_554     S
V22     V23    10.0   .     S
V23     V105    10.0   .     S
V23     V32    10.0   .     S
V23     V24    10.0   .     S
V24     V103    10.0   1_556     S
V24     V33    10.0   .     S
V24     V22    10.0   1_556     S
V25     V76    10.0   1_655     S
V25     V34    10.0   .     S
V25     V28    10.0   .     S
V25     V27    10.0   1_554     S
V25     V26    10.0   .     S
V26     V77    10.0   1_655     S
V26     V35    10.0   .     S
V26     V29    10.0   .     S
V26     V27    10.0   .     S
V27     V78    10.0   1_655     S
V27     V36    10.0   .     S
V27     V30    10.0   .     S
V27     V25    10.0   1_556     S
V28     V94    10.0   1_655     S
V28     V30    10.0   1_554     S
V28     V29    10.0   .     S
V29     V95    10.0   1_655     S
V29     V30    10.0   .     S
V30     V96    10.0   1_655     S
V30     V28    10.0   1_556     S
V31     V52    10.0   1_545     S
V31     V33    10.0   1_554     S
V31     V32    10.0   .     S
V32     V53    10.0   1_545     S
V32     V33    10.0   .     S
V33     V54    10.0   1_545     S
V33     V31    10.0   1_556     S
V34     V37    10.0   .     S
V34     V89    10.0   .     S
V34     V36    10.0   1_554     S
V34     V35    10.0   .     S
V35     V38    10.0   .     S
V35     V90    10.0   .     S
V35     V36    10.0   .     S
V36     V39    10.0   .     S
V36     V88    10.0   1_556     S
V36     V34    10.0   1_556     S
V37     V40    10.0   .     S
V37     V39    10.0   1_554     S
V37     V38    10.0   .     S
V38     V41    10.0   .     S
V38     V39    10.0   .     S
V39     V16    10.0   1_556     S
V39     V42    10.0   .     S
V39     V37    10.0   1_556     S
V40     V67    10.0   .     S
V40     V43    10.0   .     S
V40     V42    10.0   1_554     S
V40     V41    10.0   .     S
V41     V68    10.0   .     S
V41     V44    10.0   .     S
V41     V42    10.0   .     S
V42     V69    10.0   .     S
V42     V45    10.0   .     S
V42     V40    10.0   1_556     S
V43     V46    10.0   .     S
V43     V64    10.0   .     S
V43     V45    10.0   1_554     S
V43     V44    10.0   .     S
V44     V47    10.0   .     S
V44     V65    10.0   .     S
V44     V45    10.0   .     S
V45     V48    10.0   .     S
V45     V66    10.0   .     S
V45     V43    10.0   1_556     S
V46     V48    10.0   1_554     S
V46     V47    10.0   .     S
V47     V48    10.0   .     S
V48     V1    10.0   1_556     S
V48     V46    10.0   1_556     S
V49     V6    10.0   1_554     S
V49     V64    10.0   .     S
V49     V91    10.0   .     S
V49     V50    10.0   .     S
V49     V51    10.0   1_554     S
V50     V65    10.0   .     S
V50     V92    10.0   .     S
V50     V51    10.0   .     S
V51     V66    10.0   .     S
V51     V93    10.0   .     S
V51     V49    10.0   1_556     S
V52     V31    10.0   1_565     S
V52     V70    10.0   .     S
V52     V55    10.0   .     S
V52     V53    10.0   .     S
V52     V54    10.0   1_554     S
V53     V32    10.0   1_565     S
V53     V71    10.0   .     S
V53     V56    10.0   .     S
V53     V54    10.0   .     S
V54     V33    10.0   1_565     S
V54     V72    10.0   .     S
V54     V57    10.0   .     S
V54     V52    10.0   1_556     S
V55     V10    10.0   1_565     S
V55     V58    10.0   .     S
V55     V56    10.0   .     S
V55     V57    10.0   1_554     S
V56     V11    10.0   1_565     S
V56     V59    10.0   .     S
V56     V57    10.0   .     S
V57     V12    10.0   1_565     S
V57     V60    10.0   .     S
V57     V55    10.0   1_556     S
V58     V84    10.0   1_554     S
V58     V61    10.0   .     S
V58     V59    10.0   .     S
V58     V60    10.0   1_554     S
V59     V82    10.0   .     S
V59     V62    10.0   .     S
V59     V60    10.0   .     S
V60     V83    10.0   .     S
V60     V63    10.0   .     S
V60     V58    10.0   1_556     S
V61     V87    10.0   1_554     S
V61     V76    10.0   .     S
V61     V62    10.0   .     S
V61     V63    10.0   1_554     S
V62     V85    10.0   .     S
V62     V77    10.0   .     S
V62     V63    10.0   .     S
V63     V86    10.0   .     S
V63     V78    10.0   .     S
V63     V61    10.0   1_556     S
V64     V67    10.0   .     S
V64     V65    10.0   .     S
V64     V66    10.0   1_554     S
V65     V68    10.0   .     S
V65     V66    10.0   .     S
V66     V69    10.0   .     S
V66     V64    10.0   1_556     S
V67     V73    10.0   .     S
V67     V68    10.0   .     S
V67     V69    10.0   1_554     S
V68     V74    10.0   .     S
V68     V69    10.0   .     S
V69     V75    10.0   .     S
V69     V67    10.0   1_556     S
V70     V73    10.0   .     S
V70     V99    10.0   1_554     S
V70     V71    10.0   .     S
V70     V72    10.0   1_554     S
V71     V74    10.0   .     S
V71     V97    10.0   .     S
V71     V72    10.0   .     S
V72     V75    10.0   .     S
V72     V98    10.0   .     S
V72     V70    10.0   1_556     S
V73     V15    10.0   1_554     S
V73     V74    10.0   .     S
V73     V75    10.0   1_554     S
V74     V75    10.0   .     S
V75     V73    10.0   1_556     S
V76     V25    10.0   1_455     S
V76     V94    10.0   .     S
V76     V77    10.0   .     S
V76     V78    10.0   1_554     S
V77     V26    10.0   1_455     S
V77     V95    10.0   .     S
V77     V78    10.0   .     S
V78     V27    10.0   1_455     S
V78     V96    10.0   .     S
V78     V76    10.0   1_556     S
V79     V9    10.0   1_554     S
V79     V82    10.0   1_545     S
V79     V80    10.0   .     S
V79     V81    10.0   1_554     S
V80     V83    10.0   1_545     S
V80     V81    10.0   .     S
V81     V84    10.0   1_545     S
V81     V79    10.0   1_556     S
V82     V79    10.0   1_565     S
V82     V85    10.0   .     S
V82     V84    10.0   1_554     S
V82     V83    10.0   .     S
V83     V80    10.0   1_565     S
V83     V86    10.0   .     S
V83     V84    10.0   .     S
V84     V58    10.0   1_556     S
V84     V81    10.0   1_565     S
V84     V87    10.0   .     S
V84     V82    10.0   1_556     S
V85     V88    10.0   1_455     S
V85     V87    10.0   1_554     S
V85     V86    10.0   .     S
V86     V89    10.0   1_455     S
V86     V87    10.0   .     S
V87     V61    10.0   1_556     S
V87     V90    10.0   1_455     S
V87     V85    10.0   1_556     S
V88     V36    10.0   1_554     S
V88     V85    10.0   1_655     S
V88     V89    10.0   .     S
V88     V90    10.0   1_554     S
V89     V86    10.0   1_655     S
V89     V90    10.0   .     S
V90     V87    10.0   1_655     S
V90     V88    10.0   1_556     S
V91     V102    10.0   1_554     S
V91     V94    10.0   .     S
V91     V92    10.0   .     S
V91     V93    10.0   1_554     S
V92     V100    10.0   .     S
V92     V95    10.0   .     S
V92     V93    10.0   .     S
V93     V101    10.0   .     S
V93     V96    10.0   .     S
V93     V91    10.0   1_556     S
V94     V28    10.0   1_455     S
V94     V95    10.0   .     S
V94     V96    10.0   1_554     S
V95     V29    10.0   1_455     S
V95     V96    10.0   .     S
V96     V30    10.0   1_455     S
V96     V94    10.0   1_556     S
V97     V103    10.0   1_565     S
V97     V99    10.0   1_554     S
V97     V98    10.0   .     S
V98     V104    10.0   1_565     S
V98     V99    10.0   .     S
V99     V70    10.0   1_556     S
V99     V105    10.0   1_565     S
V99     V97    10.0   1_556     S
V100     V106    10.0   1_455     S
V100     V102    10.0   1_554     S
V100     V101    10.0   .     S
V101     V107    10.0   1_455     S
V101     V102    10.0   .     S
V102     V91    10.0   1_556     S
V102     V108    10.0   1_455     S
V102     V100    10.0   1_556     S
V103     V24    10.0   1_554     S
V103     V97    10.0   1_545     S
V103     V106    10.0   .     S
V103     V104    10.0   .     S
V103     V105    10.0   1_554     S
V104     V98    10.0   1_545     S
V104     V107    10.0   .     S
V104     V105    10.0   .     S
V105     V99    10.0   1_545     S
V105     V108    10.0   .     S
V105     V103    10.0   1_556     S
V106     V21    10.0   1_554     S
V106     V100    10.0   1_655     S
V106     V107    10.0   .     S
V106     V108    10.0   1_554     S
V107     V101    10.0   1_655     S
V107     V108    10.0   .     S
V108     V102    10.0   1_655     S
V108     V106    10.0   1_556     S
