data_wlp
_audit_creation_date              2019-12-31
_audit_creation_method            'Pymatgen'
_symmetry_space_group_name_H-M    'P1'
_symmetry_Int_Tables_number       1
loop_
_symmetry_equiv_pos_as_xyz
  x,y,z
_cell_length_a                    67.1979
_cell_length_b                    67.1979
_cell_length_c                    25.1524
_cell_angle_alpha                 90.0
_cell_angle_beta                 90.0
_cell_angle_gamma                 120.0
loop_
_atom_site_label
_atom_site_type_symbol
_atom_site_fract_x
_atom_site_fract_y
_atom_site_fract_z
V1     V     0.7507   0.9332   0.25
V2     V     0.7507   0.9332   0.75
V3     V     0.8175   0.0668   0.0
V4     V     0.8175   0.0668   0.5
V5     V     0.5999   0.084   0.1667
V6     V     0.5999   0.084   0.6667
V7     V     0.7335   0.1508   0.4167
V8     V     0.7335   0.1508   0.9167
V9     V     0.5159   0.916   0.0833
V10     V     0.5159   0.916   0.5833
V11     V     0.5827   0.8492   0.3333
V12     V     0.5827   0.8492   0.8333
V13     V     0.8175   0.7507   0.25
V14     V     0.8175   0.7507   0.75
V15     V     0.7507   0.8175   0.0
V16     V     0.7507   0.8175   0.5
V17     V     0.5999   0.5159   0.4167
V18     V     0.5999   0.5159   0.9167
V19     V     0.7335   0.5827   0.1667
V20     V     0.7335   0.5827   0.6667
V21     V     0.5159   0.5999   0.3333
V22     V     0.5159   0.5999   0.8333
V23     V     0.5827   0.7335   0.0833
V24     V     0.5827   0.7335   0.5833
V25     V     0.2665   0.8492   0.0833
V26     V     0.2665   0.8492   0.5833
V27     V     0.4001   0.916   0.3333
V28     V     0.4001   0.916   0.8333
V29     V     0.1825   0.9332   0.0
V30     V     0.1825   0.9332   0.5
V31     V     0.2493   0.0668   0.25
V32     V     0.2493   0.0668   0.75
V33     V     0.4173   0.1508   0.1667
V34     V     0.4173   0.1508   0.6667
V35     V     0.4841   0.084   0.4167
V36     V     0.4841   0.084   0.9167
V37     V     0.2493   0.1825   0.0
V38     V     0.2493   0.1825   0.5
V39     V     0.1825   0.2493   0.25
V40     V     0.1825   0.2493   0.75
V41     V     0.4173   0.2665   0.4167
V42     V     0.4173   0.2665   0.9167
V43     V     0.4841   0.4001   0.1667
V44     V     0.4841   0.4001   0.6667
V45     V     0.2665   0.4173   0.3333
V46     V     0.2665   0.4173   0.8333
V47     V     0.4001   0.4841   0.0833
V48     V     0.4001   0.4841   0.5833
V49     V     0.8492   0.5827   0.4167
V50     V     0.8492   0.5827   0.9167
V51     V     0.916   0.5159   0.1667
V52     V     0.916   0.5159   0.6667
V53     V     0.9332   0.7507   0.0
V54     V     0.9332   0.7507   0.5
V55     V     0.0668   0.8175   0.25
V56     V     0.0668   0.8175   0.75
V57     V     0.084   0.5999   0.0833
V58     V     0.084   0.5999   0.5833
V59     V     0.1508   0.7335   0.3333
V60     V     0.1508   0.7335   0.8333
V61     V     0.9332   0.1825   0.25
V62     V     0.9332   0.1825   0.75
V63     V     0.0668   0.2493   0.0
V64     V     0.0668   0.2493   0.5
V65     V     0.084   0.4841   0.3333
V66     V     0.084   0.4841   0.8333
V67     V     0.1508   0.4173   0.0833
V68     V     0.1508   0.4173   0.5833
V69     V     0.8492   0.2665   0.1667
V70     V     0.8492   0.2665   0.6667
V71     V     0.916   0.4001   0.4167
V72     V     0.916   0.4001   0.9167
loop_
_geom_bond_atom_site_label_1
_geom_bond_atom_site_label_2
_geom_bond_distance
_geom_bond_site_symmetry_2
_ccdc_geom_bond_type
V1     V3    9.999   1_565     S
V1     V4    9.999   1_565     S
V1     V11    10.0   .     S
V1     V16    10.0   .     S
V1     V15    10.0   .     S
V2     V4    9.999   1_565     S
V2     V3    9.999   1_566     S
V2     V12    10.0   .     S
V2     V15    10.0   1_556     S
V2     V16    10.0   .     S
V3     V1    9.999   1_545     S
V3     V2    9.999   1_544     S
V3     V8    10.0   1_554     S
V3     V62    10.0   1_554     S
V3     V61    10.0   .     S
V4     V2    9.999   1_545     S
V4     V1    9.999   1_545     S
V4     V7    10.0   .     S
V4     V61    10.0   .     S
V4     V62    10.0   .     S
V5     V9    10.0   1_545     S
V5     V8    9.999   1_554     S
V5     V7    9.999   .     S
V5     V36    10.0   1_554     S
V5     V35    10.0   .     S
V6     V10    10.0   1_545     S
V6     V7    9.999   .     S
V6     V8    9.999   .     S
V6     V35    10.0   .     S
V6     V36    10.0   .     S
V7     V70    10.0   .     S
V7     V69    10.0   .     S
V8     V3    10.0   1_556     S
V8     V5    9.999   1_556     S
V8     V69    10.0   1_556     S
V8     V70    10.0   .     S
V9     V5    10.0   1_565     S
V9     V11    9.999   .     S
V9     V12    9.999   1_554     S
V9     V27    10.0   .     S
V9     V28    10.0   1_554     S
V10     V6    10.0   1_565     S
V10     V12    9.999   .     S
V10     V11    9.999   .     S
V10     V28    10.0   .     S
V10     V27    10.0   .     S
V11     V23    10.0   .     S
V11     V24    10.0   .     S
V12     V9    9.999   1_556     S
V12     V24    10.0   .     S
V12     V23    10.0   1_556     S
V13     V16    9.999   .     S
V13     V15    9.999   .     S
V13     V19    10.0   .     S
V13     V54    10.0   .     S
V13     V53    10.0   .     S
V14     V15    9.999   1_556     S
V14     V16    9.999   .     S
V14     V20    10.0   .     S
V14     V53    10.0   1_556     S
V14     V54    10.0   .     S
V15     V23    10.0   .     S
V15     V14    9.999   1_554     S
V15     V2    10.0   1_554     S
V16     V24    10.0   .     S
V17     V20    9.999   .     S
V17     V19    9.999   .     S
V17     V21    10.0   .     S
V17     V44    10.0   .     S
V17     V43    10.0   .     S
V18     V19    9.999   1_556     S
V18     V20    9.999   .     S
V18     V22    10.0   .     S
V18     V43    10.0   1_556     S
V18     V44    10.0   .     S
V19     V18    9.999   1_554     S
V19     V50    10.0   1_554     S
V19     V49    10.0   .     S
V20     V49    10.0   .     S
V20     V50    10.0   .     S
V21     V23    9.999   .     S
V21     V24    9.999   .     S
V21     V47    10.0   .     S
V21     V48    10.0   .     S
V22     V24    9.999   .     S
V22     V23    9.999   1_556     S
V22     V48    10.0   .     S
V22     V47    10.0   1_556     S
V23     V22    9.999   1_554     S
V23     V12    10.0   1_554     S
V25     V27    9.999   .     S
V25     V28    9.999   1_554     S
V25     V29    10.0   .     S
V25     V59    10.0   .     S
V25     V60    10.0   1_554     S
V26     V28    9.999   .     S
V26     V27    9.999   .     S
V26     V30    10.0   .     S
V26     V60    10.0   .     S
V26     V59    10.0   .     S
V27     V35    10.0   1_565     S
V28     V25    9.999   1_556     S
V28     V36    10.0   1_565     S
V28     V9    10.0   1_556     S
V29     V32    9.999   1_564     S
V29     V31    9.999   1_565     S
V29     V56    10.0   1_554     S
V29     V55    10.0   .     S
V30     V31    9.999   1_565     S
V30     V32    9.999   1_565     S
V30     V55    10.0   .     S
V30     V56    10.0   .     S
V31     V33    10.0   .     S
V31     V30    9.999   1_545     S
V31     V29    9.999   1_545     S
V31     V38    10.0   .     S
V31     V37    10.0   .     S
V32     V34    10.0   .     S
V32     V29    9.999   1_546     S
V32     V30    9.999   1_545     S
V32     V37    10.0   1_556     S
V32     V38    10.0   .     S
V33     V36    9.999   1_554     S
V33     V35    9.999   .     S
V33     V42    10.0   1_554     S
V33     V41    10.0   .     S
V34     V35    9.999   .     S
V34     V36    9.999   .     S
V34     V41    10.0   .     S
V34     V42    10.0   .     S
V35     V27    10.0   1_545     S
V36     V28    10.0   1_545     S
V36     V33    9.999   1_556     S
V36     V5    10.0   1_556     S
V37     V39    9.999   .     S
V37     V40    9.999   1_554     S
V37     V42    10.0   1_554     S
V37     V32    10.0   1_554     S
V38     V40    9.999   .     S
V38     V39    9.999   .     S
V38     V41    10.0   .     S
V39     V45    10.0   .     S
V39     V64    10.0   .     S
V39     V63    10.0   .     S
V40     V37    9.999   1_556     S
V40     V46    10.0   .     S
V40     V63    10.0   1_556     S
V40     V64    10.0   .     S
V41     V44    9.999   .     S
V41     V43    9.999   .     S
V42     V37    10.0   1_556     S
V42     V43    9.999   1_556     S
V42     V44    9.999   .     S
V42     V33    10.0   1_556     S
V43     V42    9.999   1_554     S
V43     V47    10.0   .     S
V43     V18    10.0   1_554     S
V44     V48    10.0   .     S
V45     V47    9.999   .     S
V45     V48    9.999   .     S
V45     V67    10.0   .     S
V45     V68    10.0   .     S
V46     V48    9.999   .     S
V46     V47    9.999   1_556     S
V46     V68    10.0   .     S
V46     V67    10.0   1_556     S
V47     V46    9.999   1_554     S
V47     V22    10.0   1_554     S
V49     V52    9.999   .     S
V49     V51    9.999   .     S
V49     V54    10.0   .     S
V50     V19    10.0   1_556     S
V50     V51    9.999   1_556     S
V50     V52    9.999   .     S
V50     V53    10.0   1_556     S
V51     V50    9.999   1_554     S
V51     V57    10.0   1_655     S
V51     V72    10.0   1_554     S
V51     V71    10.0   .     S
V52     V58    10.0   1_655     S
V52     V71    10.0   .     S
V52     V72    10.0   .     S
V53     V50    10.0   1_554     S
V53     V55    9.999   1_655     S
V53     V56    9.999   1_654     S
V53     V14    10.0   1_554     S
V54     V56    9.999   1_655     S
V54     V55    9.999   1_655     S
V55     V53    9.999   1_455     S
V55     V54    9.999   1_455     S
V55     V59    10.0   .     S
V56     V54    9.999   1_455     S
V56     V53    9.999   1_456     S
V56     V60    10.0   .     S
V56     V29    10.0   1_556     S
V57     V51    10.0   1_455     S
V57     V59    9.999   .     S
V57     V60    9.999   1_554     S
V57     V65    10.0   .     S
V57     V66    10.0   1_554     S
V58     V52    10.0   1_455     S
V58     V60    9.999   .     S
V58     V59    9.999   .     S
V58     V66    10.0   .     S
V58     V65    10.0   .     S
V60     V57    9.999   1_556     S
V60     V25    10.0   1_556     S
V61     V69    10.0   .     S
V61     V64    9.999   1_655     S
V61     V63    9.999   1_655     S
V62     V70    10.0   .     S
V62     V63    9.999   1_656     S
V62     V64    9.999   1_655     S
V62     V3    10.0   1_556     S
V63     V40    10.0   1_554     S
V63     V62    9.999   1_454     S
V63     V61    9.999   1_455     S
V63     V67    10.0   .     S
V64     V61    9.999   1_455     S
V64     V62    9.999   1_455     S
V64     V68    10.0   .     S
V65     V67    9.999   .     S
V65     V68    9.999   .     S
V65     V71    10.0   1_455     S
V66     V68    9.999   .     S
V66     V67    9.999   1_556     S
V66     V72    10.0   1_455     S
V66     V57    10.0   1_556     S
V67     V66    9.999   1_554     S
V67     V46    10.0   1_554     S
V69     V8    10.0   1_554     S
V69     V72    9.999   1_554     S
V69     V71    9.999   .     S
V70     V71    9.999   .     S
V70     V72    9.999   .     S
V71     V65    10.0   1_655     S
V72     V66    10.0   1_655     S
V72     V69    9.999   1_556     S
V72     V51    10.0   1_556     S
