data_wlq
_audit_creation_date              2019-12-31
_audit_creation_method            'Pymatgen'
_symmetry_space_group_name_H-M    'P1'
_symmetry_Int_Tables_number       1
loop_
_symmetry_equiv_pos_as_xyz
  x,y,z
_cell_length_a                    48.5051
_cell_length_b                    48.5051
_cell_length_c                    38.4554
_cell_angle_alpha                 90.0
_cell_angle_beta                 90.0
_cell_angle_gamma                 120.0
loop_
_atom_site_label
_atom_site_type_symbol
_atom_site_fract_x
_atom_site_fract_y
_atom_site_fract_z
V1     V     0.4788   0.3661   0.1667
V2     V     0.4788   0.3661   0.6667
V3     V     0.3661   0.4788   0.0833
V4     V     0.3661   0.4788   0.5833
V5     V     0.6339   0.1128   0.1667
V6     V     0.6339   0.1128   0.6667
V7     V     0.5212   0.8872   0.0833
V8     V     0.5212   0.8872   0.5833
V9     V     0.1878   0.2206   0.25
V10     V     0.1878   0.2206   0.75
V11     V     0.3006   0.4461   0.3333
V12     V     0.3006   0.4461   0.8333
V13     V     0.8545   0.3006   0.1667
V14     V     0.8545   0.3006   0.6667
V15     V     0.9672   0.1878   0.25
V16     V     0.9672   0.1878   0.75
V17     V     0.2206   0.0328   0.25
V18     V     0.2206   0.0328   0.75
V19     V     0.4461   0.1455   0.1667
V20     V     0.4461   0.1455   0.6667
V21     V     0.4788   0.1128   0.4167
V22     V     0.4788   0.1128   0.9167
V23     V     0.3661   0.8872   0.3333
V24     V     0.3661   0.8872   0.8333
V25     V     0.8122   0.7794   0.25
V26     V     0.8122   0.7794   0.75
V27     V     0.6994   0.5539   0.1667
V28     V     0.6994   0.5539   0.6667
V29     V     0.0328   0.8122   0.25
V30     V     0.0328   0.8122   0.75
V31     V     0.1455   0.6994   0.3333
V32     V     0.1455   0.6994   0.8333
V33     V     0.5539   0.6994   0.0833
V34     V     0.5539   0.6994   0.5833
V35     V     0.7794   0.8122   0.0
V36     V     0.7794   0.8122   0.5
V37     V     0.2206   0.1878   0.0
V38     V     0.2206   0.1878   0.5
V39     V     0.4461   0.3006   0.4167
V40     V     0.4461   0.3006   0.9167
V41     V     0.1878   0.9672   0.0
V42     V     0.1878   0.9672   0.5
V43     V     0.3006   0.8545   0.0833
V44     V     0.3006   0.8545   0.5833
V45     V     0.8122   0.0328   0.0
V46     V     0.8122   0.0328   0.5
V47     V     0.6994   0.1455   0.4167
V48     V     0.6994   0.1455   0.9167
V49     V     0.1128   0.6339   0.0833
V50     V     0.1128   0.6339   0.5833
V51     V     0.8872   0.5212   0.1667
V52     V     0.8872   0.5212   0.6667
V53     V     0.1455   0.4461   0.0833
V54     V     0.1455   0.4461   0.5833
V55     V     0.0328   0.2206   0.0
V56     V     0.0328   0.2206   0.5
V57     V     0.1128   0.4788   0.3333
V58     V     0.1128   0.4788   0.8333
V59     V     0.8872   0.3661   0.4167
V60     V     0.8872   0.3661   0.9167
V61     V     0.9672   0.7794   0.0
V62     V     0.9672   0.7794   0.5
V63     V     0.8545   0.5539   0.4167
V64     V     0.8545   0.5539   0.9167
V65     V     0.5539   0.8545   0.3333
V66     V     0.5539   0.8545   0.8333
V67     V     0.7794   0.9672   0.25
V68     V     0.7794   0.9672   0.75
V69     V     0.6339   0.5212   0.4167
V70     V     0.6339   0.5212   0.9167
V71     V     0.5212   0.6339   0.3333
V72     V     0.5212   0.6339   0.8333
loop_
_geom_bond_atom_site_label_1
_geom_bond_atom_site_label_2
_geom_bond_distance
_geom_bond_site_symmetry_2
_ccdc_geom_bond_type
V1     V3    10.0   .     S
V1     V19    10.0   .     S
V1     V27    10.0   .     S
V1     V39    10.0   .     S
V1     V40    10.0   1_554     S
V2     V4    10.0   .     S
V2     V20    10.0   .     S
V2     V28    10.0   .     S
V2     V40    10.0   .     S
V2     V39    10.0   .     S
V3     V53    10.0   .     S
V3     V33    10.0   .     S
V3     V11    10.0   .     S
V3     V12    10.0   1_554     S
V4     V54    10.0   .     S
V4     V34    10.0   .     S
V4     V12    10.0   .     S
V4     V11    10.0   .     S
V5     V7    10.0   1_545     S
V5     V19    10.0   .     S
V5     V13    10.0   .     S
V5     V47    10.0   .     S
V5     V48    10.0   1_554     S
V6     V8    10.0   1_545     S
V6     V20    10.0   .     S
V6     V14    10.0   .     S
V6     V48    10.0   .     S
V6     V47    10.0   .     S
V7     V5    10.0   1_565     S
V7     V33    10.0   .     S
V7     V43    10.0   .     S
V7     V65    10.0   .     S
V7     V66    10.0   1_554     S
V8     V6    10.0   1_565     S
V8     V34    10.0   .     S
V8     V44    10.0   .     S
V8     V66    10.0   .     S
V8     V65    10.0   .     S
V9     V11    10.0   .     S
V9     V15    10.0   1_455     S
V9     V17    10.0   .     S
V9     V38    10.0   .     S
V9     V37    10.0   .     S
V10     V12    10.0   .     S
V10     V16    10.0   1_455     S
V10     V18    10.0   .     S
V10     V37    10.0   1_556     S
V10     V38    10.0   .     S
V11     V57    10.0   .     S
V11     V71    10.0   .     S
V12     V58    10.0   .     S
V12     V72    10.0   .     S
V12     V3    10.0   1_556     S
V13     V15    10.0   .     S
V13     V51    10.0   .     S
V13     V60    10.0   1_554     S
V13     V59    10.0   .     S
V14     V16    10.0   .     S
V14     V52    10.0   .     S
V14     V59    10.0   .     S
V14     V60    10.0   .     S
V15     V9    10.0   1_655     S
V15     V67    10.0   1_545     S
V15     V56    10.0   1_655     S
V15     V55    10.0   1_655     S
V16     V10    10.0   1_655     S
V16     V68    10.0   1_545     S
V16     V55    10.0   1_656     S
V16     V56    10.0   1_655     S
V17     V19    10.0   .     S
V17     V29    10.0   1_545     S
V17     V42    10.0   1_545     S
V17     V41    10.0   1_545     S
V18     V20    10.0   .     S
V18     V30    10.0   1_545     S
V18     V41    10.0   1_546     S
V18     V42    10.0   1_545     S
V19     V22    10.0   1_554     S
V19     V21    10.0   .     S
V20     V21    10.0   .     S
V20     V22    10.0   .     S
V21     V23    10.0   1_545     S
V21     V39    10.0   .     S
V21     V47    10.0   .     S
V22     V24    10.0   1_545     S
V22     V40    10.0   .     S
V22     V48    10.0   .     S
V22     V19    10.0   1_556     S
V23     V21    10.0   1_565     S
V23     V31    10.0   .     S
V23     V65    10.0   .     S
V23     V44    10.0   .     S
V23     V43    10.0   .     S
V24     V22    10.0   1_565     S
V24     V32    10.0   .     S
V24     V66    10.0   .     S
V24     V43    10.0   1_556     S
V24     V44    10.0   .     S
V25     V27    10.0   .     S
V25     V29    10.0   1_655     S
V25     V67    10.0   .     S
V25     V36    10.0   .     S
V25     V35    10.0   .     S
V26     V28    10.0   .     S
V26     V30    10.0   1_655     S
V26     V68    10.0   .     S
V26     V35    10.0   1_556     S
V26     V36    10.0   .     S
V27     V51    10.0   .     S
V27     V70    10.0   1_554     S
V27     V69    10.0   .     S
V28     V52    10.0   .     S
V28     V69    10.0   .     S
V28     V70    10.0   .     S
V29     V17    10.0   1_565     S
V29     V31    10.0   .     S
V29     V25    10.0   1_455     S
V29     V62    10.0   1_455     S
V29     V61    10.0   1_455     S
V30     V18    10.0   1_565     S
V30     V32    10.0   .     S
V30     V26    10.0   1_455     S
V30     V61    10.0   1_456     S
V30     V62    10.0   1_455     S
V31     V57    10.0   .     S
V31     V49    10.0   .     S
V31     V50    10.0   .     S
V32     V58    10.0   .     S
V32     V50    10.0   .     S
V32     V49    10.0   1_556     S
V33     V35    10.0   .     S
V33     V72    10.0   1_554     S
V33     V71    10.0   .     S
V34     V36    10.0   .     S
V34     V71    10.0   .     S
V34     V72    10.0   .     S
V35     V61    10.0   .     S
V35     V45    10.0   1_565     S
V35     V26    10.0   1_554     S
V36     V62    10.0   .     S
V36     V46    10.0   1_565     S
V37     V40    10.0   1_554     S
V37     V41    10.0   1_545     S
V37     V55    10.0   .     S
V37     V10    10.0   1_554     S
V38     V39    10.0   .     S
V38     V42    10.0   1_545     S
V38     V56    10.0   .     S
V39     V69    10.0   .     S
V40     V37    10.0   1_556     S
V40     V70    10.0   .     S
V40     V1    10.0   1_556     S
V41     V43    10.0   .     S
V41     V37    10.0   1_565     S
V41     V61    10.0   1_455     S
V41     V18    10.0   1_564     S
V41     V17    10.0   1_565     S
V42     V44    10.0   .     S
V42     V38    10.0   1_565     S
V42     V62    10.0   1_455     S
V42     V17    10.0   1_565     S
V42     V18    10.0   1_565     S
V43     V49    10.0   .     S
V43     V24    10.0   1_554     S
V44     V50    10.0   .     S
V45     V48    10.0   1_554     S
V45     V35    10.0   1_545     S
V45     V55    10.0   1_655     S
V45     V67    10.0   1_545     S
V45     V68    10.0   1_544     S
V46     V47    10.0   .     S
V46     V36    10.0   1_545     S
V46     V56    10.0   1_655     S
V46     V68    10.0   1_545     S
V46     V67    10.0   1_545     S
V47     V59    10.0   .     S
V48     V45    10.0   1_556     S
V48     V60    10.0   .     S
V48     V5    10.0   1_556     S
V49     V51    10.0   1_455     S
V49     V53    10.0   .     S
V49     V32    10.0   1_554     S
V50     V52    10.0   1_455     S
V50     V54    10.0   .     S
V51     V49    10.0   1_655     S
V51     V64    10.0   1_554     S
V51     V63    10.0   .     S
V52     V50    10.0   1_655     S
V52     V63    10.0   .     S
V52     V64    10.0   .     S
V53     V55    10.0   .     S
V53     V58    10.0   1_554     S
V53     V57    10.0   .     S
V54     V56    10.0   .     S
V54     V57    10.0   .     S
V54     V58    10.0   .     S
V55     V45    10.0   1_455     S
V55     V16    10.0   1_454     S
V55     V15    10.0   1_455     S
V56     V46    10.0   1_455     S
V56     V15    10.0   1_455     S
V56     V16    10.0   1_455     S
V57     V59    10.0   1_455     S
V58     V60    10.0   1_455     S
V58     V53    10.0   1_556     S
V59     V57    10.0   1_655     S
V59     V63    10.0   .     S
V60     V58    10.0   1_655     S
V60     V64    10.0   .     S
V60     V13    10.0   1_556     S
V61     V41    10.0   1_655     S
V61     V64    10.0   1_554     S
V61     V30    10.0   1_654     S
V61     V29    10.0   1_655     S
V62     V42    10.0   1_655     S
V62     V63    10.0   .     S
V62     V29    10.0   1_655     S
V62     V30    10.0   1_655     S
V63     V69    10.0   .     S
V64     V61    10.0   1_556     S
V64     V70    10.0   .     S
V64     V51    10.0   1_556     S
V65     V67    10.0   .     S
V65     V71    10.0   .     S
V66     V68    10.0   .     S
V66     V72    10.0   .     S
V66     V7    10.0   1_556     S
V67     V15    10.0   1_565     S
V67     V45    10.0   1_565     S
V67     V46    10.0   1_565     S
V68     V16    10.0   1_565     S
V68     V46    10.0   1_565     S
V68     V45    10.0   1_566     S
V69     V71    10.0   .     S
V70     V72    10.0   .     S
V70     V27    10.0   1_556     S
V72     V33    10.0   1_556     S
