data_wmb
_audit_creation_date              2019-12-31
_audit_creation_method            'Pymatgen'
_symmetry_space_group_name_H-M    'P1'
_symmetry_Int_Tables_number       1
loop_
_symmetry_equiv_pos_as_xyz
  x,y,z
_cell_length_a                    34.085
_cell_length_b                    34.085
_cell_length_c                    28.2405
_cell_angle_alpha                 90.0
_cell_angle_beta                 90.0
_cell_angle_gamma                 120.0
loop_
_atom_site_label
_atom_site_type_symbol
_atom_site_fract_x
_atom_site_fract_y
_atom_site_fract_z
V1     V     0.3333   0.2238   0.3649
V2     V     0.3333   0.7238   0.3649
V3     V     0.8333   0.2238   0.3649
V4     V     0.8333   0.7238   0.3649
V5     V     0.2238   0.3333   0.6351
V6     V     0.2238   0.8333   0.6351
V7     V     0.7238   0.3333   0.6351
V8     V     0.7238   0.8333   0.6351
V9     V     0.3905   0.1667   0.6983
V10     V     0.3905   0.6667   0.6983
V11     V     0.8905   0.1667   0.6983
V12     V     0.8905   0.6667   0.6983
V13     V     0.1095   0.2762   0.9684
V14     V     0.1095   0.7762   0.9684
V15     V     0.6095   0.2762   0.9684
V16     V     0.6095   0.7762   0.9684
V17     V     0.2762   0.1095   0.0316
V18     V     0.2762   0.6095   0.0316
V19     V     0.7762   0.1095   0.0316
V20     V     0.7762   0.6095   0.0316
V21     V     0.1667   0.3905   0.3017
V22     V     0.1667   0.8905   0.3017
V23     V     0.6667   0.3905   0.3017
V24     V     0.6667   0.8905   0.3017
loop_
_geom_bond_atom_site_label_1
_geom_bond_atom_site_label_2
_geom_bond_distance
_geom_bond_site_symmetry_2
_ccdc_geom_bond_type
V1     V9    10.0   .     S
V1     V5    10.0   .     S
V1     V17    10.0   .     S
V1     V22    10.0   1_545     S
V1     V21    10.0   .     S
V1     V23    10.0   .     S
V2     V10    10.0   .     S
V2     V6    10.0   .     S
V2     V18    10.0   .     S
V2     V21    10.0   .     S
V2     V22    10.0   .     S
V2     V24    10.0   .     S
V3     V11    10.0   .     S
V3     V7    10.0   .     S
V3     V19    10.0   .     S
V3     V24    10.0   1_545     S
V3     V23    10.0   .     S
V3     V21    10.0   1_655     S
V4     V12    10.0   .     S
V4     V8    10.0   .     S
V4     V20    10.0   .     S
V4     V23    10.0   .     S
V4     V24    10.0   .     S
V4     V22    10.0   1_655     S
V5     V21    10.0   .     S
V5     V9    10.0   .     S
V5     V13    10.0   .     S
V5     V10    10.0   .     S
V5     V11    10.0   1_455     S
V6     V22    10.0   .     S
V6     V10    10.0   .     S
V6     V14    10.0   .     S
V6     V9    10.0   1_565     S
V6     V12    10.0   1_455     S
V7     V23    10.0   .     S
V7     V11    10.0   .     S
V7     V15    10.0   .     S
V7     V12    10.0   .     S
V7     V9    10.0   .     S
V8     V24    10.0   .     S
V8     V12    10.0   .     S
V8     V16    10.0   .     S
V8     V11    10.0   1_565     S
V8     V10    10.0   .     S
V9     V17    10.0   1_556     S
V9     V15    10.0   .     S
V9     V6    10.0   1_545     S
V10     V18    10.0   1_556     S
V10     V16    10.0   .     S
V11     V19    10.0   1_556     S
V11     V13    10.0   1_655     S
V11     V8    10.0   1_545     S
V11     V5    10.0   1_655     S
V12     V20    10.0   1_556     S
V12     V14    10.0   1_655     S
V12     V6    10.0   1_655     S
V13     V11    10.0   1_455     S
V13     V19    10.0   1_456     S
V13     V21    10.0   1_556     S
V13     V17    10.0   1_556     S
V13     V18    10.0   1_556     S
V14     V12    10.0   1_455     S
V14     V20    10.0   1_456     S
V14     V22    10.0   1_556     S
V14     V18    10.0   1_556     S
V14     V17    10.0   1_566     S
V15     V17    10.0   1_556     S
V15     V23    10.0   1_556     S
V15     V19    10.0   1_556     S
V15     V20    10.0   1_556     S
V16     V18    10.0   1_556     S
V16     V24    10.0   1_556     S
V16     V20    10.0   1_556     S
V16     V19    10.0   1_566     S
V17     V9    10.0   1_554     S
V17     V15    10.0   1_554     S
V17     V22    10.0   1_545     S
V17     V13    10.0   1_554     S
V17     V14    10.0   1_544     S
V18     V10    10.0   1_554     S
V18     V16    10.0   1_554     S
V18     V21    10.0   .     S
V18     V14    10.0   1_554     S
V18     V13    10.0   1_554     S
V19     V11    10.0   1_554     S
V19     V13    10.0   1_654     S
V19     V24    10.0   1_545     S
V19     V15    10.0   1_554     S
V19     V16    10.0   1_544     S
V20     V12    10.0   1_554     S
V20     V14    10.0   1_654     S
V20     V23    10.0   .     S
V20     V16    10.0   1_554     S
V20     V15    10.0   1_554     S
V21     V13    10.0   1_554     S
V21     V3    10.0   1_455     S
V22     V14    10.0   1_554     S
V22     V17    10.0   1_565     S
V22     V1    10.0   1_565     S
V22     V4    10.0   1_455     S
V23     V15    10.0   1_554     S
V24     V16    10.0   1_554     S
V24     V19    10.0   1_565     S
V24     V3    10.0   1_565     S
