data_wmc
_audit_creation_date              2019-12-31
_audit_creation_method            'Pymatgen'
_symmetry_space_group_name_H-M    'P1'
_symmetry_Int_Tables_number       1
loop_
_symmetry_equiv_pos_as_xyz
  x,y,z
_cell_length_a                    29.7635
_cell_length_b                    29.7635
_cell_length_c                    38.986
_cell_angle_alpha                 90.0
_cell_angle_beta                 90.0
_cell_angle_gamma                 120.0
loop_
_atom_site_label
_atom_site_type_symbol
_atom_site_fract_x
_atom_site_fract_y
_atom_site_fract_z
V1     V     0.5944   0.1136   0.0
V2     V     0.5944   0.1136   0.5
V3     V     0.5192   0.1136   0.25
V4     V     0.5192   0.1136   0.75
V5     V     0.5192   0.4056   0.0
V6     V     0.5192   0.4056   0.5
V7     V     0.5944   0.4808   0.25
V8     V     0.5944   0.4808   0.75
V9     V     0.8864   0.4056   0.25
V10     V     0.8864   0.4056   0.75
V11     V     0.8864   0.4808   0.0
V12     V     0.8864   0.4808   0.5
V13     V     0.5531   0.8141   0.1667
V14     V     0.5531   0.8141   0.6667
V15     V     0.5531   0.739   0.4167
V16     V     0.5531   0.739   0.9167
V17     V     0.1859   0.4469   0.4167
V18     V     0.1859   0.4469   0.9167
V19     V     0.261   0.4469   0.1667
V20     V     0.261   0.4469   0.6667
V21     V     0.1859   0.739   0.1667
V22     V     0.1859   0.739   0.6667
V23     V     0.261   0.8141   0.4167
V24     V     0.261   0.8141   0.9167
V25     V     0.2197   0.1474   0.3333
V26     V     0.2197   0.1474   0.8333
V27     V     0.2197   0.0723   0.0833
V28     V     0.2197   0.0723   0.5833
V29     V     0.9277   0.7803   0.3333
V30     V     0.9277   0.7803   0.8333
V31     V     0.8526   0.7803   0.0833
V32     V     0.8526   0.7803   0.5833
V33     V     0.8526   0.0723   0.3333
V34     V     0.8526   0.0723   0.8333
V35     V     0.9277   0.1474   0.0833
V36     V     0.9277   0.1474   0.5833
loop_
_geom_bond_atom_site_label_1
_geom_bond_atom_site_label_2
_geom_bond_distance
_geom_bond_site_symmetry_2
_ccdc_geom_bond_type
V1     V11    10.0   .     S
V1     V4    10.0   1_554     S
V1     V24    10.0   1_544     S
V1     V3    10.0   .     S
V1     V5    10.0   .     S
V1     V35    10.0   .     S
V2     V12    10.0   .     S
V2     V3    10.0   .     S
V2     V23    10.0   1_545     S
V2     V4    10.0   .     S
V2     V6    10.0   .     S
V2     V36    10.0   .     S
V3     V7    10.0   .     S
V3     V13    10.0   1_545     S
V3     V9    10.0   .     S
V3     V25    10.0   .     S
V4     V1    10.0   1_556     S
V4     V8    10.0   .     S
V4     V14    10.0   1_545     S
V4     V10    10.0   .     S
V4     V26    10.0   .     S
V5     V8    10.0   1_554     S
V5     V16    10.0   1_554     S
V5     V7    10.0   .     S
V5     V11    10.0   .     S
V5     V27    10.0   .     S
V6     V7    10.0   .     S
V6     V15    10.0   .     S
V6     V8    10.0   .     S
V6     V12    10.0   .     S
V6     V28    10.0   .     S
V7     V9    10.0   .     S
V7     V19    10.0   .     S
V7     V29    10.0   .     S
V8     V5    10.0   1_556     S
V8     V10    10.0   .     S
V8     V20    10.0   .     S
V8     V30    10.0   .     S
V9     V11    10.0   .     S
V9     V21    10.0   1_655     S
V9     V12    10.0   .     S
V9     V33    10.0   .     S
V10     V12    10.0   .     S
V10     V22    10.0   1_655     S
V10     V11    10.0   1_556     S
V10     V34    10.0   .     S
V11     V10    10.0   1_554     S
V11     V18    10.0   1_654     S
V11     V31    10.0   .     S
V12     V17    10.0   1_655     S
V12     V32    10.0   .     S
V13     V3    10.0   1_565     S
V13     V21    10.0   .     S
V13     V16    10.0   1_554     S
V13     V31    10.0   .     S
V13     V15    10.0   .     S
V13     V19    10.0   .     S
V14     V4    10.0   1_565     S
V14     V22    10.0   .     S
V14     V15    10.0   .     S
V14     V32    10.0   .     S
V14     V16    10.0   .     S
V14     V20    10.0   .     S
V15     V17    10.0   .     S
V15     V33    10.0   1_565     S
V15     V23    10.0   .     S
V16     V5    10.0   1_556     S
V16     V13    10.0   1_556     S
V16     V18    10.0   .     S
V16     V34    10.0   1_565     S
V16     V24    10.0   .     S
V17     V12    10.0   1_455     S
V17     V23    10.0   .     S
V17     V19    10.0   .     S
V17     V25    10.0   .     S
V17     V20    10.0   .     S
V18     V11    10.0   1_456     S
V18     V24    10.0   .     S
V18     V20    10.0   .     S
V18     V26    10.0   .     S
V18     V19    10.0   1_556     S
V19     V18    10.0   1_554     S
V19     V35    10.0   1_455     S
V19     V21    10.0   .     S
V20     V36    10.0   1_455     S
V20     V22    10.0   .     S
V21     V9    10.0   1_455     S
V21     V24    10.0   1_554     S
V21     V27    10.0   1_565     S
V21     V23    10.0   .     S
V22     V10    10.0   1_455     S
V22     V23    10.0   .     S
V22     V28    10.0   1_565     S
V22     V24    10.0   .     S
V23     V2    10.0   1_565     S
V23     V29    10.0   1_455     S
V24     V1    10.0   1_566     S
V24     V21    10.0   1_556     S
V24     V30    10.0   1_455     S
V25     V33    10.0   1_455     S
V25     V27    10.0   .     S
V25     V28    10.0   .     S
V25     V29    10.0   1_445     S
V26     V34    10.0   1_455     S
V26     V28    10.0   .     S
V26     V27    10.0   1_556     S
V26     V30    10.0   1_445     S
V27     V21    10.0   1_545     S
V27     V31    10.0   1_445     S
V27     V26    10.0   1_554     S
V27     V35    10.0   1_455     S
V28     V22    10.0   1_545     S
V28     V32    10.0   1_445     S
V28     V36    10.0   1_455     S
V29     V23    10.0   1_655     S
V29     V25    10.0   1_665     S
V29     V31    10.0   .     S
V29     V32    10.0   .     S
V29     V33    10.0   1_565     S
V30     V24    10.0   1_655     S
V30     V26    10.0   1_665     S
V30     V32    10.0   .     S
V30     V31    10.0   1_556     S
V30     V34    10.0   1_565     S
V31     V27    10.0   1_665     S
V31     V35    10.0   1_565     S
V31     V30    10.0   1_554     S
V32     V28    10.0   1_665     S
V32     V36    10.0   1_565     S
V33     V15    10.0   1_545     S
V33     V25    10.0   1_655     S
V33     V29    10.0   1_545     S
V33     V35    10.0   .     S
V33     V36    10.0   .     S
V34     V16    10.0   1_545     S
V34     V26    10.0   1_655     S
V34     V30    10.0   1_545     S
V34     V36    10.0   .     S
V34     V35    10.0   1_556     S
V35     V19    10.0   1_655     S
V35     V31    10.0   1_545     S
V35     V27    10.0   1_655     S
V35     V34    10.0   1_554     S
V36     V20    10.0   1_655     S
V36     V32    10.0   1_545     S
V36     V28    10.0   1_655     S
