data_wmd
_audit_creation_date              2019-12-31
_audit_creation_method            'Pymatgen'
_symmetry_space_group_name_H-M    'P1'
_symmetry_Int_Tables_number       1
loop_
_symmetry_equiv_pos_as_xyz
  x,y,z
_cell_length_a                    37.6052
_cell_length_b                    37.6052
_cell_length_c                    38.2835
_cell_angle_alpha                 90.0
_cell_angle_beta                 90.0
_cell_angle_gamma                 120.0
loop_
_atom_site_label
_atom_site_type_symbol
_atom_site_fract_x
_atom_site_fract_y
_atom_site_fract_z
V1     V     0.4686   0.1873   0.7055
V2     V     0.4686   0.6873   0.7055
V3     V     0.9686   0.1873   0.7055
V4     V     0.9686   0.6873   0.7055
V5     V     0.4686   0.2814   0.4612
V6     V     0.4686   0.7814   0.4612
V7     V     0.9686   0.2814   0.4612
V8     V     0.9686   0.7814   0.4612
V9     V     0.3127   0.0314   0.1278
V10     V     0.3127   0.5314   0.1278
V11     V     0.8127   0.0314   0.1278
V12     V     0.8127   0.5314   0.1278
V13     V     0.2186   0.0314   0.3721
V14     V     0.2186   0.5314   0.3721
V15     V     0.7186   0.0314   0.3721
V16     V     0.7186   0.5314   0.3721
V17     V     0.2814   0.3127   0.2945
V18     V     0.2814   0.8127   0.2945
V19     V     0.7814   0.3127   0.2945
V20     V     0.7814   0.8127   0.2945
V21     V     0.1873   0.2186   0.5388
V22     V     0.1873   0.7186   0.5388
V23     V     0.6873   0.2186   0.5388
V24     V     0.6873   0.7186   0.5388
V25     V     0.0314   0.2186   0.9612
V26     V     0.0314   0.7186   0.9612
V27     V     0.5314   0.2186   0.9612
V28     V     0.5314   0.7186   0.9612
V29     V     0.0314   0.3127   0.2055
V30     V     0.0314   0.8127   0.2055
V31     V     0.5314   0.3127   0.2055
V32     V     0.5314   0.8127   0.2055
V33     V     0.2814   0.4686   0.8721
V34     V     0.2814   0.9686   0.8721
V35     V     0.7814   0.4686   0.8721
V36     V     0.7814   0.9686   0.8721
V37     V     0.1873   0.4686   0.6278
V38     V     0.1873   0.9686   0.6278
V39     V     0.6873   0.4686   0.6278
V40     V     0.6873   0.9686   0.6278
V41     V     0.3127   0.2814   0.0388
V42     V     0.3127   0.7814   0.0388
V43     V     0.8127   0.2814   0.0388
V44     V     0.8127   0.7814   0.0388
V45     V     0.2186   0.1873   0.7945
V46     V     0.2186   0.6873   0.7945
V47     V     0.7186   0.1873   0.7945
V48     V     0.7186   0.6873   0.7945
loop_
_geom_bond_atom_site_label_1
_geom_bond_atom_site_label_2
_geom_bond_distance
_geom_bond_site_symmetry_2
_ccdc_geom_bond_type
V1     V23    10.0   .     S
V1     V5    10.0   .     S
V1     V34    10.0   1_545     S
V1     V47    10.0   .     S
V1     V27    10.0   .     S
V1     V45    10.0   .     S
V2     V24    10.0   .     S
V2     V6    10.0   .     S
V2     V33    10.0   .     S
V2     V48    10.0   .     S
V2     V28    10.0   .     S
V2     V46    10.0   .     S
V3     V21    10.0   1_655     S
V3     V7    10.0   .     S
V3     V36    10.0   1_545     S
V3     V45    10.0   1_655     S
V3     V25    10.0   1_655     S
V3     V47    10.0   .     S
V4     V22    10.0   1_655     S
V4     V8    10.0   .     S
V4     V35    10.0   .     S
V4     V46    10.0   1_655     S
V4     V26    10.0   1_655     S
V4     V48    10.0   .     S
V5     V39    10.0   .     S
V5     V16    10.0   .     S
V5     V17    10.0   .     S
V5     V31    10.0   .     S
V5     V13    10.0   .     S
V6     V40    10.0   .     S
V6     V15    10.0   1_565     S
V6     V18    10.0   .     S
V6     V32    10.0   .     S
V6     V14    10.0   .     S
V7     V37    10.0   1_655     S
V7     V14    10.0   1_655     S
V7     V19    10.0   .     S
V7     V29    10.0   1_655     S
V7     V15    10.0   .     S
V8     V38    10.0   1_655     S
V8     V13    10.0   1_665     S
V8     V20    10.0   .     S
V8     V30    10.0   1_655     S
V8     V16    10.0   .     S
V9     V18    10.0   1_545     S
V9     V42    10.0   1_545     S
V9     V13    10.0   .     S
V9     V41    10.0   .     S
V9     V27    10.0   1_554     S
V9     V34    10.0   1_544     S
V10     V17    10.0   .     S
V10     V41    10.0   .     S
V10     V14    10.0   .     S
V10     V42    10.0   .     S
V10     V28    10.0   1_554     S
V10     V33    10.0   1_554     S
V11     V20    10.0   1_545     S
V11     V44    10.0   1_545     S
V11     V15    10.0   .     S
V11     V43    10.0   .     S
V11     V25    10.0   1_654     S
V11     V36    10.0   1_544     S
V12     V19    10.0   .     S
V12     V43    10.0   .     S
V12     V16    10.0   .     S
V12     V44    10.0   .     S
V12     V26    10.0   1_654     S
V12     V35    10.0   1_554     S
V13     V8    10.0   1_445     S
V13     V38    10.0   1_545     S
V13     V30    10.0   1_545     S
V13     V21    10.0   .     S
V14     V7    10.0   1_455     S
V14     V37    10.0   .     S
V14     V29    10.0   .     S
V14     V22    10.0   .     S
V15     V6    10.0   1_545     S
V15     V40    10.0   1_545     S
V15     V32    10.0   1_545     S
V15     V23    10.0   .     S
V16     V39    10.0   .     S
V16     V31    10.0   .     S
V16     V24    10.0   .     S
V17     V41    10.0   .     S
V17     V31    10.0   .     S
V17     V21    10.0   .     S
V17     V29    10.0   .     S
V18     V9    10.0   1_565     S
V18     V42    10.0   .     S
V18     V32    10.0   .     S
V18     V22    10.0   .     S
V18     V30    10.0   .     S
V19     V43    10.0   .     S
V19     V29    10.0   1_655     S
V19     V23    10.0   .     S
V19     V31    10.0   .     S
V20     V11    10.0   1_565     S
V20     V44    10.0   .     S
V20     V30    10.0   1_655     S
V20     V24    10.0   .     S
V20     V32    10.0   .     S
V21     V3    10.0   1_455     S
V21     V38    10.0   1_545     S
V21     V45    10.0   .     S
V21     V37    10.0   .     S
V22     V4    10.0   1_455     S
V22     V37    10.0   .     S
V22     V46    10.0   .     S
V22     V38    10.0   .     S
V23     V40    10.0   1_545     S
V23     V47    10.0   .     S
V23     V39    10.0   .     S
V24     V39    10.0   .     S
V24     V48    10.0   .     S
V24     V40    10.0   .     S
V25     V11    10.0   1_456     S
V25     V36    10.0   1_445     S
V25     V29    10.0   1_556     S
V25     V33    10.0   .     S
V25     V45    10.0   .     S
V25     V3    10.0   1_455     S
V26     V12    10.0   1_456     S
V26     V35    10.0   1_455     S
V26     V30    10.0   1_556     S
V26     V34    10.0   .     S
V26     V46    10.0   .     S
V26     V4    10.0   1_455     S
V27     V9    10.0   1_556     S
V27     V34    10.0   1_545     S
V27     V31    10.0   1_556     S
V27     V35    10.0   .     S
V27     V47    10.0   .     S
V28     V10    10.0   1_556     S
V28     V33    10.0   .     S
V28     V32    10.0   1_556     S
V28     V36    10.0   .     S
V28     V48    10.0   .     S
V29     V19    10.0   1_455     S
V29     V7    10.0   1_455     S
V29     V43    10.0   1_455     S
V29     V25    10.0   1_554     S
V30     V13    10.0   1_565     S
V30     V20    10.0   1_455     S
V30     V8    10.0   1_455     S
V30     V44    10.0   1_455     S
V30     V26    10.0   1_554     S
V31     V41    10.0   .     S
V31     V27    10.0   1_554     S
V32     V15    10.0   1_565     S
V32     V42    10.0   .     S
V32     V28    10.0   1_554     S
V33     V10    10.0   1_556     S
V33     V37    10.0   .     S
V33     V41    10.0   1_556     S
V34     V27    10.0   1_565     S
V34     V9    10.0   1_566     S
V34     V1    10.0   1_565     S
V34     V38    10.0   .     S
V34     V42    10.0   1_556     S
V35     V26    10.0   1_655     S
V35     V12    10.0   1_556     S
V35     V39    10.0   .     S
V35     V43    10.0   1_556     S
V36     V25    10.0   1_665     S
V36     V11    10.0   1_566     S
V36     V3    10.0   1_565     S
V36     V40    10.0   .     S
V36     V44    10.0   1_556     S
V37     V7    10.0   1_455     S
V37     V46    10.0   .     S
V38     V8    10.0   1_455     S
V38     V13    10.0   1_565     S
V38     V45    10.0   1_565     S
V38     V21    10.0   1_565     S
V39     V48    10.0   .     S
V40     V15    10.0   1_565     S
V40     V47    10.0   1_565     S
V40     V23    10.0   1_565     S
V41     V33    10.0   1_554     S
V41     V45    10.0   1_554     S
V42     V9    10.0   1_565     S
V42     V34    10.0   1_554     S
V42     V46    10.0   1_554     S
V43     V29    10.0   1_655     S
V43     V35    10.0   1_554     S
V43     V47    10.0   1_554     S
V44     V11    10.0   1_565     S
V44     V30    10.0   1_655     S
V44     V36    10.0   1_554     S
V44     V48    10.0   1_554     S
V45     V38    10.0   1_545     S
V45     V3    10.0   1_455     S
V45     V41    10.0   1_556     S
V46     V4    10.0   1_455     S
V46     V42    10.0   1_556     S
V47     V40    10.0   1_545     S
V47     V43    10.0   1_556     S
V48     V44    10.0   1_556     S
