data_wmi
_audit_creation_date              2019-12-31
_audit_creation_method            'Pymatgen'
_symmetry_space_group_name_H-M    'P1'
_symmetry_Int_Tables_number       1
loop_
_symmetry_equiv_pos_as_xyz
  x,y,z
_cell_length_a                    39.731
_cell_length_b                    39.731
_cell_length_c                    56.6731
_cell_angle_alpha                 90.0
_cell_angle_beta                 90.0
_cell_angle_gamma                 120.0
loop_
_atom_site_label
_atom_site_type_symbol
_atom_site_fract_x
_atom_site_fract_y
_atom_site_fract_z
V1     V     0.4335   0.1002   0.5784
V2     V     0.4335   0.6002   0.5784
V3     V     0.9335   0.1002   0.5784
V4     V     0.9335   0.6002   0.5784
V5     V     0.0665   0.1667   0.4216
V6     V     0.0665   0.6667   0.4216
V7     V     0.5665   0.1667   0.4216
V8     V     0.5665   0.6667   0.4216
V9     V     0.1002   0.4335   0.4216
V10     V     0.1002   0.9335   0.4216
V11     V     0.6002   0.4335   0.4216
V12     V     0.6002   0.9335   0.4216
V13     V     0.1667   0.0665   0.5784
V14     V     0.1667   0.5665   0.5784
V15     V     0.6667   0.0665   0.5784
V16     V     0.6667   0.5665   0.5784
V17     V     0.3333   0.3998   0.4216
V18     V     0.3333   0.8998   0.4216
V19     V     0.8333   0.3998   0.4216
V20     V     0.8333   0.8998   0.4216
V21     V     0.3998   0.3333   0.5784
V22     V     0.3998   0.8333   0.5784
V23     V     0.8998   0.3333   0.5784
V24     V     0.8998   0.8333   0.5784
V25     V     0.0   0.2332   0.0882
V26     V     0.0   0.7332   0.0882
V27     V     0.5   0.2332   0.0882
V28     V     0.5   0.7332   0.0882
V29     V     0.0665   0.1667   0.2451
V30     V     0.0665   0.6667   0.2451
V31     V     0.5665   0.1667   0.2451
V32     V     0.5665   0.6667   0.2451
V33     V     0.3333   0.3998   0.2451
V34     V     0.3333   0.8998   0.2451
V35     V     0.8333   0.3998   0.2451
V36     V     0.8333   0.8998   0.2451
V37     V     0.2668   0.2668   0.0882
V38     V     0.2668   0.7668   0.0882
V39     V     0.7668   0.2668   0.0882
V40     V     0.7668   0.7668   0.0882
V41     V     0.2332   0.0   0.0882
V42     V     0.2332   0.5   0.0882
V43     V     0.7332   0.0   0.0882
V44     V     0.7332   0.5   0.0882
V45     V     0.1002   0.4335   0.2451
V46     V     0.1002   0.9335   0.2451
V47     V     0.6002   0.4335   0.2451
V48     V     0.6002   0.9335   0.2451
V49     V     0.3998   0.3333   0.7549
V50     V     0.3998   0.8333   0.7549
V51     V     0.8998   0.3333   0.7549
V52     V     0.8998   0.8333   0.7549
V53     V     0.2668   0.2668   0.9118
V54     V     0.2668   0.7668   0.9118
V55     V     0.7668   0.2668   0.9118
V56     V     0.7668   0.7668   0.9118
V57     V     0.1667   0.0665   0.7549
V58     V     0.1667   0.5665   0.7549
V59     V     0.6667   0.0665   0.7549
V60     V     0.6667   0.5665   0.7549
V61     V     0.2332   0.0   0.9118
V62     V     0.2332   0.5   0.9118
V63     V     0.7332   0.0   0.9118
V64     V     0.7332   0.5   0.9118
V65     V     0.0   0.2332   0.9118
V66     V     0.0   0.7332   0.9118
V67     V     0.5   0.2332   0.9118
V68     V     0.5   0.7332   0.9118
V69     V     0.4335   0.1002   0.7549
V70     V     0.4335   0.6002   0.7549
V71     V     0.9335   0.1002   0.7549
V72     V     0.9335   0.6002   0.7549
loop_
_geom_bond_atom_site_label_1
_geom_bond_atom_site_label_2
_geom_bond_distance
_geom_bond_site_symmetry_2
_ccdc_geom_bond_type
V1     V7    10.0   .     S
V1     V15    10.0   .     S
V1     V22    10.0   1_545     S
V1     V13    10.0   .     S
V1     V21    10.0   .     S
V1     V69    10.001   .     S
V2     V8    10.0   .     S
V2     V16    10.0   .     S
V2     V21    10.0   .     S
V2     V14    10.0   .     S
V2     V22    10.0   .     S
V2     V70    10.001   .     S
V3     V5    10.0   1_655     S
V3     V13    10.0   1_655     S
V3     V24    10.0   1_545     S
V3     V15    10.0   .     S
V3     V23    10.0   .     S
V3     V71    10.001   .     S
V4     V6    10.0   1_655     S
V4     V14    10.0   1_655     S
V4     V23    10.0   .     S
V4     V16    10.0   .     S
V4     V24    10.0   .     S
V4     V72    10.001   .     S
V5     V3    10.0   1_455     S
V5     V20    10.0   1_445     S
V5     V9    10.0   .     S
V5     V17    10.0   .     S
V5     V10    10.0   1_545     S
V5     V29    10.001   .     S
V6     V4    10.0   1_455     S
V6     V19    10.0   1_455     S
V6     V10    10.0   .     S
V6     V18    10.0   .     S
V6     V9    10.0   .     S
V6     V30    10.001   .     S
V7     V18    10.0   1_545     S
V7     V11    10.0   .     S
V7     V19    10.0   .     S
V7     V12    10.0   1_545     S
V7     V31    10.001   .     S
V8     V17    10.0   .     S
V8     V12    10.0   .     S
V8     V20    10.0   .     S
V8     V11    10.0   .     S
V8     V32    10.001   .     S
V9     V14    10.0   .     S
V9     V17    10.0   .     S
V9     V19    10.0   1_455     S
V9     V45    10.001   .     S
V10     V13    10.0   1_565     S
V10     V18    10.0   .     S
V10     V5    10.0   1_565     S
V10     V20    10.0   1_455     S
V10     V46    10.001   .     S
V11     V16    10.0   .     S
V11     V19    10.0   .     S
V11     V17    10.0   .     S
V11     V47    10.001   .     S
V12     V15    10.0   1_565     S
V12     V20    10.0   .     S
V12     V7    10.0   1_565     S
V12     V18    10.0   .     S
V12     V48    10.001   .     S
V13     V3    10.0   1_455     S
V13     V21    10.0   .     S
V13     V10    10.0   1_545     S
V13     V24    10.0   1_445     S
V13     V57    10.001   .     S
V14     V4    10.0   1_455     S
V14     V22    10.0   .     S
V14     V23    10.0   1_455     S
V14     V58    10.001   .     S
V15     V23    10.0   .     S
V15     V12    10.0   1_545     S
V15     V22    10.0   1_545     S
V15     V59    10.001   .     S
V16     V24    10.0   .     S
V16     V21    10.0   .     S
V16     V60    10.001   .     S
V17     V21    10.0   .     S
V17     V33    10.001   .     S
V18     V7    10.0   1_565     S
V18     V22    10.0   .     S
V18     V34    10.001   .     S
V19     V6    10.0   1_655     S
V19     V23    10.0   .     S
V19     V9    10.0   1_655     S
V19     V35    10.001   .     S
V20     V5    10.0   1_665     S
V20     V24    10.0   .     S
V20     V10    10.0   1_655     S
V20     V36    10.001   .     S
V21     V49    10.001   .     S
V22     V1    10.0   1_565     S
V22     V15    10.0   1_565     S
V22     V50    10.001   .     S
V23     V14    10.0   1_655     S
V23     V51    10.001   .     S
V24     V3    10.0   1_565     S
V24     V13    10.0   1_665     S
V24     V52    10.001   .     S
V25     V29    10.0   .     S
V25     V43    10.0   1_455     S
V25     V39    10.0   1_455     S
V25     V37    10.0   .     S
V25     V42    10.0   .     S
V25     V65    10.001   1_554     S
V26     V30    10.0   .     S
V26     V44    10.0   1_455     S
V26     V40    10.0   1_455     S
V26     V38    10.0   .     S
V26     V41    10.0   1_565     S
V26     V66    10.001   1_554     S
V27     V31    10.0   .     S
V27     V41    10.0   .     S
V27     V37    10.0   .     S
V27     V39    10.0   .     S
V27     V44    10.0   .     S
V27     V67    10.001   1_554     S
V28     V32    10.0   .     S
V28     V42    10.0   .     S
V28     V38    10.0   .     S
V28     V40    10.0   .     S
V28     V43    10.0   1_565     S
V28     V68    10.001   1_554     S
V29     V33    10.0   .     S
V29     V45    10.0   .     S
V29     V36    10.0   1_445     S
V29     V46    10.0   1_545     S
V30     V34    10.0   .     S
V30     V46    10.0   .     S
V30     V35    10.0   1_455     S
V30     V45    10.0   .     S
V31     V35    10.0   .     S
V31     V47    10.0   .     S
V31     V34    10.0   1_545     S
V31     V48    10.0   1_545     S
V32     V36    10.0   .     S
V32     V48    10.0   .     S
V32     V33    10.0   .     S
V32     V47    10.0   .     S
V33     V37    10.0   .     S
V33     V45    10.0   .     S
V33     V47    10.0   .     S
V34     V38    10.0   .     S
V34     V46    10.0   .     S
V34     V48    10.0   .     S
V34     V31    10.0   1_565     S
V35     V39    10.0   .     S
V35     V47    10.0   .     S
V35     V45    10.0   1_655     S
V35     V30    10.0   1_655     S
V36     V40    10.0   .     S
V36     V48    10.0   .     S
V36     V46    10.0   1_655     S
V36     V29    10.0   1_665     S
V37     V41    10.0   .     S
V37     V42    10.0   .     S
V37     V53    10.001   1_554     S
V38     V42    10.0   .     S
V38     V41    10.0   1_565     S
V38     V54    10.001   1_554     S
V39     V43    10.0   .     S
V39     V25    10.0   1_655     S
V39     V44    10.0   .     S
V39     V55    10.001   1_554     S
V40     V44    10.0   .     S
V40     V26    10.0   1_655     S
V40     V43    10.0   1_565     S
V40     V56    10.001   1_554     S
V41     V46    10.0   1_545     S
V41     V38    10.0   1_545     S
V41     V26    10.0   1_545     S
V41     V61    10.001   1_554     S
V42     V45    10.0   .     S
V42     V62    10.001   1_554     S
V43     V25    10.0   1_655     S
V43     V48    10.0   1_545     S
V43     V40    10.0   1_545     S
V43     V28    10.0   1_545     S
V43     V63    10.001   1_554     S
V44     V26    10.0   1_655     S
V44     V47    10.0   .     S
V44     V64    10.001   1_554     S
V45     V35    10.0   1_455     S
V46     V41    10.0   1_565     S
V46     V36    10.0   1_455     S
V46     V29    10.0   1_565     S
V48     V43    10.0   1_565     S
V48     V31    10.0   1_565     S
V49     V53    10.0   .     S
V49     V69    10.0   .     S
V49     V57    10.0   .     S
V49     V70    10.0   .     S
V49     V60    10.0   .     S
V50     V54    10.0   .     S
V50     V70    10.0   .     S
V50     V58    10.0   .     S
V50     V69    10.0   1_565     S
V50     V59    10.0   1_565     S
V51     V55    10.0   .     S
V51     V71    10.0   .     S
V51     V59    10.0   .     S
V51     V72    10.0   .     S
V51     V58    10.0   1_655     S
V52     V56    10.0   .     S
V52     V72    10.0   .     S
V52     V60    10.0   .     S
V52     V71    10.0   1_565     S
V52     V57    10.0   1_665     S
V53     V62    10.0   .     S
V53     V61    10.0   .     S
V53     V65    10.0   .     S
V53     V67    10.0   .     S
V53     V37    10.001   1_556     S
V54     V61    10.0   1_565     S
V54     V62    10.0   .     S
V54     V66    10.0   .     S
V54     V68    10.0   .     S
V54     V38    10.001   1_556     S
V55     V64    10.0   .     S
V55     V63    10.0   .     S
V55     V67    10.0   .     S
V55     V65    10.0   1_655     S
V55     V39    10.001   1_556     S
V56     V63    10.0   1_565     S
V56     V64    10.0   .     S
V56     V68    10.0   .     S
V56     V66    10.0   1_655     S
V56     V40    10.001   1_556     S
V57     V61    10.0   .     S
V57     V69    10.0   .     S
V57     V71    10.0   1_455     S
V57     V52    10.0   1_445     S
V58     V62    10.0   .     S
V58     V70    10.0   .     S
V58     V72    10.0   1_455     S
V58     V51    10.0   1_455     S
V59     V63    10.0   .     S
V59     V71    10.0   .     S
V59     V69    10.0   .     S
V59     V50    10.0   1_545     S
V60     V64    10.0   .     S
V60     V72    10.0   .     S
V60     V70    10.0   .     S
V61     V54    10.0   1_545     S
V61     V67    10.0   .     S
V61     V66    10.0   1_545     S
V61     V41    10.001   1_556     S
V62     V68    10.0   .     S
V62     V65    10.0   .     S
V62     V42    10.001   1_556     S
V63     V56    10.0   1_545     S
V63     V65    10.0   1_655     S
V63     V68    10.0   1_545     S
V63     V43    10.001   1_556     S
V64     V66    10.0   1_655     S
V64     V67    10.0   .     S
V64     V44    10.001   1_556     S
V65     V63    10.0   1_455     S
V65     V71    10.0   1_455     S
V65     V55    10.0   1_455     S
V65     V25    10.001   1_556     S
V66     V64    10.0   1_455     S
V66     V61    10.0   1_565     S
V66     V72    10.0   1_455     S
V66     V56    10.0   1_455     S
V66     V26    10.001   1_556     S
V67     V69    10.0   .     S
V67     V27    10.001   1_556     S
V68     V63    10.0   1_565     S
V68     V70    10.0   .     S
V68     V28    10.001   1_556     S
V69     V50    10.0   1_545     S
V71     V65    10.0   1_655     S
V71     V52    10.0   1_545     S
V71     V57    10.0   1_655     S
V72     V66    10.0   1_655     S
V72     V58    10.0   1_655     S
