data_wmj
_audit_creation_date              2019-12-31
_audit_creation_method            'Pymatgen'
_symmetry_space_group_name_H-M    'P1'
_symmetry_Int_Tables_number       1
loop_
_symmetry_equiv_pos_as_xyz
  x,y,z
_cell_length_a                    28.3437
_cell_length_b                    28.3437
_cell_length_c                    38.4436
_cell_angle_alpha                 90.0
_cell_angle_beta                 90.0
_cell_angle_gamma                 120.0
loop_
_atom_site_label
_atom_site_type_symbol
_atom_site_fract_x
_atom_site_fract_y
_atom_site_fract_z
V1     V     0.6349   0.6912   0.0342
V2     V     0.6349   0.6912   0.5342
V3     V     0.6912   0.635   0.2842
V4     V     0.6912   0.635   0.7842
V5     V     0.9437   0.635   0.4658
V6     V     0.9437   0.635   0.9658
V7     V     0.3088   0.9437   0.0342
V8     V     0.3088   0.9437   0.5342
V9     V     0.0563   0.6912   0.2158
V10     V     0.0563   0.6912   0.7158
V11     V     0.9437   0.3088   0.2842
V12     V     0.9437   0.3088   0.7842
V13     V     0.6912   0.0563   0.4658
V14     V     0.6912   0.0563   0.9658
V15     V     0.3088   0.365   0.2158
V16     V     0.3088   0.365   0.7158
V17     V     0.0563   0.365   0.0342
V18     V     0.0563   0.365   0.5342
V19     V     0.365   0.0563   0.2842
V20     V     0.365   0.0563   0.7842
V21     V     0.365   0.3088   0.4658
V22     V     0.365   0.3088   0.9658
V23     V     0.6349   0.9437   0.2158
V24     V     0.6349   0.9437   0.7158
loop_
_geom_bond_atom_site_label_1
_geom_bond_atom_site_label_2
_geom_bond_distance
_geom_bond_site_symmetry_2
_ccdc_geom_bond_type
V1     V6    10.0   1_554     S
V1     V4    10.0   1_554     S
V1     V23    10.0   .     S
V1     V3    10.0   .     S
V1     V14    10.0   1_564     S
V1     V22    10.0   1_554     S
V2     V5    10.0   .     S
V2     V3    10.0   .     S
V2     V24    10.0   .     S
V2     V4    10.0   .     S
V2     V13    10.0   1_565     S
V2     V21    10.0   .     S
V3     V23    10.0   .     S
V3     V5    10.0   .     S
V3     V9    10.0   1_655     S
V3     V15    10.0   .     S
V4     V1    10.0   1_556     S
V4     V24    10.0   .     S
V4     V6    10.0   .     S
V4     V10    10.0   1_655     S
V4     V16    10.0   .     S
V5     V9    10.0   1_655     S
V5     V8    10.0   1_655     S
V5     V10    10.0   1_655     S
V5     V18    10.0   1_655     S
V6     V1    10.0   1_556     S
V6     V10    10.0   1_655     S
V6     V7    10.0   1_656     S
V6     V9    10.0   1_656     S
V6     V17    10.0   1_656     S
V7     V6    10.0   1_454     S
V7     V19    10.0   1_565     S
V7     V9    10.0   .     S
V7     V22    10.0   1_564     S
V7     V20    10.0   1_564     S
V7     V14    10.0   1_564     S
V8     V5    10.0   1_455     S
V8     V20    10.0   1_565     S
V8     V10    10.0   .     S
V8     V21    10.0   1_565     S
V8     V19    10.0   1_565     S
V8     V13    10.0   1_565     S
V9     V3    10.0   1_455     S
V9     V5    10.0   1_455     S
V9     V6    10.0   1_454     S
V9     V19    10.0   1_565     S
V9     V11    10.0   1_455     S
V10     V4    10.0   1_455     S
V10     V6    10.0   1_455     S
V10     V5    10.0   1_455     S
V10     V20    10.0   1_565     S
V10     V12    10.0   1_455     S
V11     V18    10.0   1_655     S
V11     V13    10.0   .     S
V11     V23    10.0   1_545     S
V11     V15    10.0   1_655     S
V11     V17    10.0   1_655     S
V11     V9    10.0   1_655     S
V12     V17    10.0   1_656     S
V12     V14    10.0   .     S
V12     V24    10.0   1_545     S
V12     V16    10.0   1_655     S
V12     V18    10.0   1_655     S
V12     V10    10.0   1_655     S
V13     V2    10.0   1_545     S
V13     V24    10.0   1_545     S
V13     V18    10.0   1_655     S
V13     V23    10.0   1_545     S
V13     V8    10.0   1_545     S
V14     V1    10.0   1_546     S
V14     V23    10.0   1_546     S
V14     V17    10.0   1_656     S
V14     V24    10.0   1_545     S
V14     V7    10.0   1_546     S
V15     V11    10.0   1_455     S
V15     V17    10.0   .     S
V15     V22    10.0   1_554     S
V15     V19    10.0   .     S
V15     V21    10.0   .     S
V16     V12    10.0   1_455     S
V16     V18    10.0   .     S
V16     V21    10.0   .     S
V16     V20    10.0   .     S
V16     V22    10.0   .     S
V17     V14    10.0   1_454     S
V17     V12    10.0   1_454     S
V17     V11    10.0   1_455     S
V17     V22    10.0   1_554     S
V17     V6    10.0   1_454     S
V18     V13    10.0   1_455     S
V18     V11    10.0   1_455     S
V18     V12    10.0   1_455     S
V18     V21    10.0   .     S
V18     V5    10.0   1_455     S
V19     V9    10.0   1_545     S
V19     V7    10.0   1_545     S
V19     V8    10.0   1_545     S
V19     V21    10.0   .     S
V19     V23    10.0   1_545     S
V20     V10    10.0   1_545     S
V20     V8    10.0   1_545     S
V20     V7    10.0   1_546     S
V20     V22    10.0   .     S
V20     V24    10.0   1_545     S
V21     V8    10.0   1_545     S
V22     V17    10.0   1_556     S
V22     V15    10.0   1_556     S
V22     V7    10.0   1_546     S
V22     V1    10.0   1_556     S
V23     V14    10.0   1_564     S
V23     V11    10.0   1_565     S
V23     V13    10.0   1_565     S
V23     V19    10.0   1_565     S
V24     V13    10.0   1_565     S
V24     V12    10.0   1_565     S
V24     V14    10.0   1_565     S
V24     V20    10.0   1_565     S
