data_wml
_audit_creation_date              2019-12-31
_audit_creation_method            'Pymatgen'
_symmetry_space_group_name_H-M    'P1'
_symmetry_Int_Tables_number       1
loop_
_symmetry_equiv_pos_as_xyz
  x,y,z
_cell_length_a                    32.4951
_cell_length_b                    32.4951
_cell_length_c                    30.4844
_cell_angle_alpha                 90.0
_cell_angle_beta                 90.0
_cell_angle_gamma                 120.0
loop_
_atom_site_label
_atom_site_type_symbol
_atom_site_fract_x
_atom_site_fract_y
_atom_site_fract_z
V1     V     0.3333   0.8659   0.4826
V2     V     0.3333   0.8659   0.9826
V3     V     0.1341   0.6667   0.2326
V4     V     0.1341   0.6667   0.7326
V5     V     0.8659   0.3333   0.2674
V6     V     0.8659   0.3333   0.7674
V7     V     0.6667   0.1341   0.0174
V8     V     0.6667   0.1341   0.5174
V9     V     0.6667   0.5326   0.2674
V10     V     0.6667   0.5326   0.7674
V11     V     0.8659   0.5326   0.0174
V12     V     0.8659   0.5326   0.5174
V13     V     0.3333   0.4674   0.2326
V14     V     0.3333   0.4674   0.7326
V15     V     0.1341   0.4674   0.4826
V16     V     0.1341   0.4674   0.9826
V17     V     0.4674   0.3333   0.0174
V18     V     0.4674   0.3333   0.5174
V19     V     0.4674   0.1341   0.2674
V20     V     0.4674   0.1341   0.7674
V21     V     0.5326   0.8659   0.2326
V22     V     0.5326   0.8659   0.7326
V23     V     0.5326   0.6667   0.4826
V24     V     0.5326   0.6667   0.9826
loop_
_geom_bond_atom_site_label_1
_geom_bond_atom_site_label_2
_geom_bond_distance
_geom_bond_site_symmetry_2
_ccdc_geom_bond_type
V1     V3    10.0   .     S
V1     V4    10.0   .     S
V1     V22    10.0   .     S
V1     V8    10.0   1_565     S
V1     V21    10.0   .     S
V1     V19    10.0   1_565     S
V2     V4    10.0   .     S
V2     V3    10.0   1_556     S
V2     V21    10.0   1_556     S
V2     V7    10.0   1_566     S
V2     V22    10.0   .     S
V2     V20    10.0   1_565     S
V3     V2    10.0   1_554     S
V3     V15    10.0   .     S
V3     V11    10.0   1_455     S
V3     V16    10.0   1_554     S
V3     V5    10.0   1_455     S
V4     V16    10.0   .     S
V4     V12    10.0   1_455     S
V4     V15    10.0   .     S
V4     V6    10.0   1_455     S
V5     V8    10.0   .     S
V5     V7    10.0   .     S
V5     V12    10.0   .     S
V5     V15    10.0   1_655     S
V5     V11    10.0   .     S
V5     V3    10.0   1_655     S
V6     V7    10.0   1_556     S
V6     V8    10.0   .     S
V6     V11    10.0   1_556     S
V6     V16    10.0   1_655     S
V6     V12    10.0   .     S
V6     V4    10.0   1_655     S
V7     V21    10.0   1_545     S
V7     V19    10.0   .     S
V7     V2    10.0   1_544     S
V7     V20    10.0   1_554     S
V7     V6    10.0   1_554     S
V8     V22    10.0   1_545     S
V8     V20    10.0   .     S
V8     V1    10.0   1_545     S
V8     V19    10.0   .     S
V9     V12    10.0   .     S
V9     V11    10.0   .     S
V9     V17    10.0   .     S
V9     V23    10.0   .     S
V9     V18    10.0   .     S
V9     V13    10.0   .     S
V10     V11    10.0   1_556     S
V10     V12    10.0   .     S
V10     V18    10.0   .     S
V10     V24    10.0   .     S
V10     V17    10.0   1_556     S
V10     V14    10.0   .     S
V11     V10    10.0   1_554     S
V11     V6    10.0   1_554     S
V11     V16    10.0   1_654     S
V11     V3    10.0   1_655     S
V12     V15    10.0   1_655     S
V12     V4    10.0   1_655     S
V13     V15    10.0   .     S
V13     V16    10.0   1_554     S
V13     V24    10.0   1_554     S
V13     V17    10.0   .     S
V13     V23    10.0   .     S
V14     V16    10.0   .     S
V14     V15    10.0   .     S
V14     V23    10.0   .     S
V14     V18    10.0   .     S
V14     V24    10.0   .     S
V15     V5    10.0   1_455     S
V15     V12    10.0   1_455     S
V16     V6    10.0   1_455     S
V16     V11    10.0   1_456     S
V16     V3    10.0   1_556     S
V16     V13    10.0   1_556     S
V17     V20    10.0   1_554     S
V17     V19    10.0   .     S
V17     V24    10.0   1_554     S
V17     V10    10.0   1_554     S
V18     V19    10.0   .     S
V18     V20    10.0   .     S
V18     V23    10.0   .     S
V19     V1    10.0   1_545     S
V19     V21    10.0   1_545     S
V20     V2    10.0   1_545     S
V20     V7    10.0   1_556     S
V20     V22    10.0   1_545     S
V20     V17    10.0   1_556     S
V21     V2    10.0   1_554     S
V21     V7    10.0   1_565     S
V21     V19    10.0   1_565     S
V21     V23    10.0   .     S
V21     V24    10.0   1_554     S
V22     V8    10.0   1_565     S
V22     V20    10.0   1_565     S
V22     V24    10.0   .     S
V22     V23    10.0   .     S
V24     V13    10.0   1_556     S
V24     V17    10.0   1_556     S
V24     V21    10.0   1_556     S
