data_wmm
_audit_creation_date              2019-12-31
_audit_creation_method            'Pymatgen'
_symmetry_space_group_name_H-M    'P1'
_symmetry_Int_Tables_number       1
loop_
_symmetry_equiv_pos_as_xyz
  x,y,z
_cell_length_a                    32.8435
_cell_length_b                    32.8435
_cell_length_c                    29.8452
_cell_angle_alpha                 90.0
_cell_angle_beta                 90.0
_cell_angle_gamma                 120.0
loop_
_atom_site_label
_atom_site_type_symbol
_atom_site_fract_x
_atom_site_fract_y
_atom_site_fract_z
V1     V     0.5008   0.149   0.2862
V2     V     0.5008   0.149   0.7862
V3     V     0.3518   0.851   0.4638
V4     V     0.3518   0.851   0.9638
V5     V     0.6482   0.149   0.0362
V6     V     0.6482   0.149   0.5362
V7     V     0.4992   0.851   0.2138
V8     V     0.4992   0.851   0.7138
V9     V     0.149   0.6482   0.2138
V10     V     0.149   0.6482   0.7138
V11     V     0.149   0.5008   0.4638
V12     V     0.149   0.5008   0.9638
V13     V     0.8509   0.3518   0.2862
V14     V     0.8509   0.3518   0.7862
V15     V     0.8509   0.4992   0.0362
V16     V     0.8509   0.4992   0.5362
V17     V     0.3518   0.5008   0.2138
V18     V     0.3518   0.5008   0.7138
V19     V     0.4992   0.6482   0.4638
V20     V     0.4992   0.6482   0.9638
V21     V     0.6482   0.4992   0.2862
V22     V     0.6482   0.4992   0.7862
V23     V     0.5008   0.3518   0.0362
V24     V     0.5008   0.3518   0.5362
loop_
_geom_bond_atom_site_label_1
_geom_bond_atom_site_label_2
_geom_bond_distance
_geom_bond_site_symmetry_2
_ccdc_geom_bond_type
V1     V3    10.0   1_545     S
V1     V7    10.0   1_545     S
V1     V23    10.0   .     S
V1     V21    10.0   .     S
V1     V24    10.0   .     S
V1     V13    10.0   .     S
V2     V4    10.0   1_545     S
V2     V8    10.0   1_545     S
V2     V24    10.0   .     S
V2     V22    10.0   .     S
V2     V23    10.0   1_556     S
V2     V14    10.0   .     S
V3     V1    10.0   1_565     S
V3     V6    10.0   1_565     S
V3     V9    10.0   .     S
V3     V10    10.0   .     S
V3     V11    10.0   .     S
V3     V19    10.0   .     S
V4     V2    10.0   1_565     S
V4     V5    10.0   1_566     S
V4     V10    10.0   .     S
V4     V9    10.0   1_556     S
V4     V12    10.0   .     S
V4     V20    10.0   .     S
V5     V7    10.0   1_545     S
V5     V4    10.0   1_544     S
V5     V23    10.0   .     S
V5     V14    10.0   1_554     S
V5     V15    10.0   .     S
V5     V13    10.0   .     S
V6     V8    10.0   1_545     S
V6     V3    10.0   1_545     S
V6     V24    10.0   .     S
V6     V13    10.0   .     S
V6     V16    10.0   .     S
V6     V14    10.0   .     S
V7     V1    10.0   1_565     S
V7     V5    10.0   1_565     S
V7     V9    10.0   .     S
V7     V19    10.0   .     S
V7     V17    10.0   .     S
V7     V20    10.0   1_554     S
V8     V2    10.0   1_565     S
V8     V6    10.0   1_565     S
V8     V10    10.0   .     S
V8     V20    10.0   .     S
V8     V18    10.0   .     S
V8     V19    10.0   .     S
V9     V13    10.0   1_455     S
V9     V15    10.0   1_455     S
V9     V17    10.0   .     S
V9     V4    10.0   1_554     S
V10     V14    10.0   1_455     S
V10     V16    10.0   1_455     S
V10     V18    10.0   .     S
V11     V13    10.0   1_455     S
V11     V16    10.0   1_455     S
V11     V17    10.0   .     S
V11     V18    10.0   .     S
V11     V19    10.0   .     S
V12     V14    10.0   1_455     S
V12     V15    10.0   1_456     S
V12     V18    10.0   .     S
V12     V17    10.0   1_556     S
V12     V20    10.0   .     S
V13     V11    10.0   1_655     S
V13     V9    10.0   1_655     S
V13     V21    10.0   .     S
V14     V12    10.0   1_655     S
V14     V10    10.0   1_655     S
V14     V22    10.0   .     S
V14     V5    10.0   1_556     S
V15     V9    10.0   1_655     S
V15     V12    10.0   1_654     S
V15     V22    10.0   1_554     S
V15     V23    10.0   .     S
V15     V21    10.0   .     S
V16     V10    10.0   1_655     S
V16     V11    10.0   1_655     S
V16     V21    10.0   .     S
V16     V24    10.0   .     S
V16     V22    10.0   .     S
V17     V12    10.0   1_554     S
V17     V23    10.0   .     S
V17     V21    10.0   .     S
V18     V24    10.0   .     S
V18     V22    10.0   .     S
V19     V24    10.0   .     S
V19     V21    10.0   .     S
V20     V7    10.0   1_556     S
V20     V23    10.0   1_556     S
V20     V22    10.0   .     S
V22     V15    10.0   1_556     S
V23     V2    10.0   1_554     S
V23     V20    10.0   1_554     S
