data_wmn
_audit_creation_date              2019-12-31
_audit_creation_method            'Pymatgen'
_symmetry_space_group_name_H-M    'P1'
_symmetry_Int_Tables_number       1
loop_
_symmetry_equiv_pos_as_xyz
  x,y,z
_cell_length_a                    27.7754
_cell_length_b                    27.7754
_cell_length_c                    34.4858
_cell_angle_alpha                 90.0
_cell_angle_beta                 90.0
_cell_angle_gamma                 120.0
loop_
_atom_site_label
_atom_site_type_symbol
_atom_site_fract_x
_atom_site_fract_y
_atom_site_fract_z
V1     V     0.4021   0.1099   0.2481
V2     V     0.4021   0.1099   0.7481
V3     V     0.5979   0.8901   0.2519
V4     V     0.5979   0.8901   0.7519
V5     V     0.4021   0.2923   0.4981
V6     V     0.4021   0.2923   0.9981
V7     V     0.5979   0.7077   0.0019
V8     V     0.5979   0.7077   0.5019
V9     V     0.2923   0.8901   0.0019
V10     V     0.2923   0.8901   0.5019
V11     V     0.7077   0.1099   0.4981
V12     V     0.7077   0.1099   0.9981
V13     V     0.8901   0.2923   0.2481
V14     V     0.8901   0.2923   0.7481
V15     V     0.1099   0.7077   0.2519
V16     V     0.1099   0.7077   0.7519
V17     V     0.8901   0.5979   0.4981
V18     V     0.8901   0.5979   0.9981
V19     V     0.1099   0.4021   0.0019
V20     V     0.1099   0.4021   0.5019
V21     V     0.2923   0.4021   0.2519
V22     V     0.2923   0.4021   0.7519
V23     V     0.7077   0.5979   0.2481
V24     V     0.7077   0.5979   0.7481
loop_
_geom_bond_atom_site_label_1
_geom_bond_atom_site_label_2
_geom_bond_distance
_geom_bond_site_symmetry_2
_ccdc_geom_bond_type
V1     V21    10.0   .     S
V1     V5    10.0   .     S
V1     V3    10.0   1_545     S
V1     V6    10.0   1_554     S
V1     V15    10.0   1_545     S
V1     V9    10.0   1_545     S
V2     V22    10.0   .     S
V2     V6    10.0   .     S
V2     V4    10.0   1_545     S
V2     V5    10.0   .     S
V2     V16    10.0   1_545     S
V2     V10    10.0   1_545     S
V3     V23    10.0   .     S
V3     V7    10.0   .     S
V3     V1    10.0   1_565     S
V3     V8    10.0   .     S
V3     V13    10.0   1_565     S
V3     V11    10.0   1_565     S
V4     V24    10.0   .     S
V4     V8    10.0   .     S
V4     V2    10.0   1_565     S
V4     V7    10.0   1_556     S
V4     V14    10.0   1_565     S
V4     V12    10.0   1_565     S
V5     V10    10.0   1_545     S
V5     V8    10.0   .     S
V5     V21    10.0   .     S
V5     V20    10.0   .     S
V6     V9    10.0   1_546     S
V6     V1    10.0   1_556     S
V6     V7    10.0   1_556     S
V6     V22    10.0   .     S
V6     V19    10.0   1_556     S
V7     V12    10.0   1_564     S
V7     V4    10.0   1_554     S
V7     V6    10.0   1_554     S
V7     V18    10.0   1_554     S
V7     V23    10.0   .     S
V8     V11    10.0   1_565     S
V8     V17    10.0   .     S
V8     V24    10.0   .     S
V9     V6    10.0   1_564     S
V9     V18    10.0   1_454     S
V9     V16    10.0   1_554     S
V9     V12    10.0   1_564     S
V9     V15    10.0   .     S
V9     V1    10.0   1_565     S
V10     V5    10.0   1_565     S
V10     V17    10.0   1_455     S
V10     V15    10.0   .     S
V10     V11    10.0   1_565     S
V10     V16    10.0   .     S
V10     V2    10.0   1_565     S
V11     V8    10.0   1_545     S
V11     V20    10.0   1_655     S
V11     V14    10.0   .     S
V11     V10    10.0   1_545     S
V11     V13    10.0   .     S
V11     V3    10.0   1_545     S
V12     V7    10.0   1_546     S
V12     V19    10.0   1_656     S
V12     V13    10.0   1_556     S
V12     V9    10.0   1_546     S
V12     V14    10.0   .     S
V12     V4    10.0   1_545     S
V13     V12    10.0   1_554     S
V13     V3    10.0   1_545     S
V13     V15    10.0   1_655     S
V13     V21    10.0   1_655     S
V13     V19    10.0   1_655     S
V14     V4    10.0   1_545     S
V14     V16    10.0   1_655     S
V14     V22    10.0   1_655     S
V14     V20    10.0   1_655     S
V15     V1    10.0   1_565     S
V15     V13    10.0   1_455     S
V15     V23    10.0   1_455     S
V15     V17    10.0   1_455     S
V16     V9    10.0   1_556     S
V16     V2    10.0   1_565     S
V16     V14    10.0   1_455     S
V16     V24    10.0   1_455     S
V16     V18    10.0   1_455     S
V17     V10    10.0   1_655     S
V17     V24    10.0   .     S
V17     V20    10.0   1_655     S
V17     V23    10.0   .     S
V17     V15    10.0   1_655     S
V18     V9    10.0   1_656     S
V18     V7    10.0   1_556     S
V18     V23    10.0   1_556     S
V18     V19    10.0   1_656     S
V18     V24    10.0   .     S
V18     V16    10.0   1_655     S
V19     V12    10.0   1_454     S
V19     V6    10.0   1_554     S
V19     V22    10.0   1_554     S
V19     V18    10.0   1_454     S
V19     V21    10.0   .     S
V19     V13    10.0   1_455     S
V20     V11    10.0   1_455     S
V20     V21    10.0   .     S
V20     V17    10.0   1_455     S
V20     V22    10.0   .     S
V20     V14    10.0   1_455     S
V21     V13    10.0   1_455     S
V21     V23    10.0   .     S
V22     V19    10.0   1_556     S
V22     V14    10.0   1_455     S
V22     V24    10.0   .     S
V23     V18    10.0   1_554     S
V23     V15    10.0   1_655     S
V24     V16    10.0   1_655     S
