data_wmp
_audit_creation_date              2019-12-31
_audit_creation_method            'Pymatgen'
_symmetry_space_group_name_H-M    'P1'
_symmetry_Int_Tables_number       1
loop_
_symmetry_equiv_pos_as_xyz
  x,y,z
_cell_length_a                    79.1563
_cell_length_b                    79.1563
_cell_length_c                    30.0
_cell_angle_alpha                 90.0
_cell_angle_beta                 90.0
_cell_angle_gamma                 120.0
loop_
_atom_site_label
_atom_site_type_symbol
_atom_site_fract_x
_atom_site_fract_y
_atom_site_fract_z
V1     V     0.2702   0.0719   0.1389
V2     V     0.2702   0.0719   0.4722
V3     V     0.2702   0.0719   0.8056
V4     V     0.1983   0.9281   0.1944
V5     V     0.1983   0.9281   0.5278
V6     V     0.1983   0.9281   0.8611
V7     V     0.3965   0.1351   0.3056
V8     V     0.3965   0.1351   0.6389
V9     V     0.3965   0.1351   0.9722
V10     V     0.4684   0.0632   0.25
V11     V     0.4684   0.0632   0.5833
V12     V     0.4684   0.0632   0.9167
V13     V     0.4052   0.9368   0.0833
V14     V     0.4052   0.9368   0.4167
V15     V     0.4052   0.9368   0.75
V16     V     0.2614   0.8649   0.0278
V17     V     0.2614   0.8649   0.3611
V18     V     0.2614   0.8649   0.6944
V19     V     0.7386   0.6035   0.3056
V20     V     0.7386   0.6035   0.6389
V21     V     0.7386   0.6035   0.9722
V22     V     0.5948   0.5316   0.25
V23     V     0.5948   0.5316   0.5833
V24     V     0.5948   0.5316   0.9167
V25     V     0.6035   0.7386   0.0278
V26     V     0.6035   0.7386   0.3611
V27     V     0.6035   0.7386   0.6944
V28     V     0.5316   0.5948   0.0833
V29     V     0.5316   0.5948   0.4167
V30     V     0.5316   0.5948   0.75
V31     V     0.7298   0.8017   0.1944
V32     V     0.7298   0.8017   0.5278
V33     V     0.7298   0.8017   0.8611
V34     V     0.8017   0.7298   0.1389
V35     V     0.8017   0.7298   0.4722
V36     V     0.8017   0.7298   0.8056
V37     V     0.9281   0.7298   0.1389
V38     V     0.9281   0.7298   0.4722
V39     V     0.9281   0.7298   0.8056
V40     V     0.0719   0.8017   0.1944
V41     V     0.0719   0.8017   0.5278
V42     V     0.0719   0.8017   0.8611
V43     V     0.9368   0.5316   0.25
V44     V     0.9368   0.5316   0.5833
V45     V     0.9368   0.5316   0.9167
V46     V     0.8649   0.6035   0.3056
V47     V     0.8649   0.6035   0.6389
V48     V     0.8649   0.6035   0.9722
V49     V     0.1351   0.7386   0.0278
V50     V     0.1351   0.7386   0.3611
V51     V     0.1351   0.7386   0.6944
V52     V     0.0632   0.5948   0.0833
V53     V     0.0632   0.5948   0.4167
V54     V     0.0632   0.5948   0.75
V55     V     0.8017   0.0719   0.1389
V56     V     0.8017   0.0719   0.4722
V57     V     0.8017   0.0719   0.8056
V58     V     0.7298   0.9281   0.1944
V59     V     0.7298   0.9281   0.5278
V60     V     0.7298   0.9281   0.8611
V61     V     0.6035   0.8649   0.0278
V62     V     0.6035   0.8649   0.3611
V63     V     0.6035   0.8649   0.6944
V64     V     0.5316   0.9368   0.0833
V65     V     0.5316   0.9368   0.4167
V66     V     0.5316   0.9368   0.75
V67     V     0.5948   0.0632   0.25
V68     V     0.5948   0.0632   0.5833
V69     V     0.5948   0.0632   0.9167
V70     V     0.7386   0.1351   0.3056
V71     V     0.7386   0.1351   0.6389
V72     V     0.7386   0.1351   0.9722
V73     V     0.4052   0.4684   0.0833
V74     V     0.4052   0.4684   0.4167
V75     V     0.4052   0.4684   0.75
V76     V     0.2614   0.3965   0.0278
V77     V     0.2614   0.3965   0.3611
V78     V     0.2614   0.3965   0.6944
V79     V     0.4684   0.4052   0.25
V80     V     0.4684   0.4052   0.5833
V81     V     0.4684   0.4052   0.9167
V82     V     0.3965   0.2614   0.3056
V83     V     0.3965   0.2614   0.6389
V84     V     0.3965   0.2614   0.9722
V85     V     0.1983   0.2702   0.1944
V86     V     0.1983   0.2702   0.5278
V87     V     0.1983   0.2702   0.8611
V88     V     0.2702   0.1983   0.1389
V89     V     0.2702   0.1983   0.4722
V90     V     0.2702   0.1983   0.8056
V91     V     0.9281   0.1983   0.1389
V92     V     0.9281   0.1983   0.4722
V93     V     0.9281   0.1983   0.8056
V94     V     0.0719   0.2702   0.1944
V95     V     0.0719   0.2702   0.5278
V96     V     0.0719   0.2702   0.8611
V97     V     0.0632   0.4684   0.0833
V98     V     0.0632   0.4684   0.4167
V99     V     0.0632   0.4684   0.75
V100     V     0.1351   0.3965   0.0278
V101     V     0.1351   0.3965   0.3611
V102     V     0.1351   0.3965   0.6944
V103     V     0.9368   0.4052   0.25
V104     V     0.9368   0.4052   0.5833
V105     V     0.9368   0.4052   0.9167
V106     V     0.8649   0.2614   0.3056
V107     V     0.8649   0.2614   0.6389
V108     V     0.8649   0.2614   0.9722
loop_
_geom_bond_atom_site_label_1
_geom_bond_atom_site_label_2
_geom_bond_distance
_geom_bond_site_symmetry_2
_ccdc_geom_bond_type
V1     V7    10.0   .     S
V1     V2    10.0   .     S
V1     V3    10.0   1_554     S
V1     V4    9.999   1_545     S
V1     V9    10.0   1_554     S
V1     V88    10.001   .     S
V2     V8    10.0   .     S
V2     V3    10.0   .     S
V2     V5    9.999   1_545     S
V2     V7    10.0   .     S
V2     V89    10.001   .     S
V3     V9    10.0   .     S
V3     V1    10.0   1_556     S
V3     V6    9.999   1_545     S
V3     V8    10.0   .     S
V3     V90    10.001   .     S
V4     V16    10.0   .     S
V4     V6    10.0   1_554     S
V4     V5    10.0   .     S
V4     V1    9.999   1_565     S
V4     V17    10.0   .     S
V4     V40    10.001   .     S
V5     V17    10.0   .     S
V5     V6    10.0   .     S
V5     V2    9.999   1_565     S
V5     V18    10.0   .     S
V5     V41    10.001   .     S
V6     V18    10.0   .     S
V6     V4    10.0   1_556     S
V6     V3    9.999   1_565     S
V6     V16    10.0   1_556     S
V6     V42    10.001   .     S
V7     V9    10.0   1_554     S
V7     V8    10.0   .     S
V7     V10    9.999   .     S
V7     V82    10.001   .     S
V8     V9    10.0   .     S
V8     V11    9.999   .     S
V8     V83    10.001   .     S
V9     V7    10.0   1_556     S
V9     V1    10.0   1_556     S
V9     V12    9.999   .     S
V9     V84    10.001   .     S
V10     V14    10.0   1_545     S
V10     V12    10.0   1_554     S
V10     V11    10.0   .     S
V10     V13    10.0   1_545     S
V10     V67    10.001   .     S
V11     V15    10.0   1_545     S
V11     V12    10.0   .     S
V11     V14    10.0   1_545     S
V11     V68    10.001   .     S
V12     V13    10.0   1_546     S
V12     V10    10.0   1_556     S
V12     V15    10.0   1_545     S
V12     V69    10.001   .     S
V13     V12    10.0   1_564     S
V13     V14    10.0   .     S
V13     V15    10.0   1_554     S
V13     V10    10.0   1_565     S
V13     V16    9.999   .     S
V13     V64    10.001   .     S
V14     V10    10.0   1_565     S
V14     V15    10.0   .     S
V14     V11    10.0   1_565     S
V14     V17    9.999   .     S
V14     V65    10.001   .     S
V15     V11    10.0   1_565     S
V15     V13    10.0   1_556     S
V15     V12    10.0   1_565     S
V15     V18    9.999   .     S
V15     V66    10.001   .     S
V16     V17    10.0   .     S
V16     V18    10.0   1_554     S
V16     V6    10.0   1_554     S
V16     V49    10.001   .     S
V17     V18    10.0   .     S
V17     V50    10.001   .     S
V18     V16    10.0   1_556     S
V18     V51    10.001   .     S
V19     V34    10.0   .     S
V19     V21    10.0   1_554     S
V19     V20    10.0   .     S
V19     V22    9.999   .     S
V19     V35    10.0   .     S
V19     V46    10.001   .     S
V20     V35    10.0   .     S
V20     V21    10.0   .     S
V20     V23    9.999   .     S
V20     V36    10.0   .     S
V20     V47    10.001   .     S
V21     V36    10.0   .     S
V21     V19    10.0   1_556     S
V21     V24    9.999   .     S
V21     V34    10.0   1_556     S
V21     V48    10.001   .     S
V22     V29    10.0   .     S
V22     V24    10.0   1_554     S
V22     V23    10.0   .     S
V22     V28    10.0   .     S
V22     V79    10.001   .     S
V23     V30    10.0   .     S
V23     V24    10.0   .     S
V23     V29    10.0   .     S
V23     V80    10.001   .     S
V24     V28    10.0   1_556     S
V24     V22    10.0   1_556     S
V24     V30    10.0   .     S
V24     V81    10.001   .     S
V25     V31    10.0   .     S
V25     V26    10.0   .     S
V25     V27    10.0   1_554     S
V25     V28    9.999   .     S
V25     V33    10.0   1_554     S
V25     V61    10.001   .     S
V26     V32    10.0   .     S
V26     V27    10.0   .     S
V26     V29    9.999   .     S
V26     V31    10.0   .     S
V26     V62    10.001   .     S
V27     V33    10.0   .     S
V27     V25    10.0   1_556     S
V27     V30    9.999   .     S
V27     V32    10.0   .     S
V27     V63    10.001   .     S
V28     V24    10.0   1_554     S
V28     V29    10.0   .     S
V28     V30    10.0   1_554     S
V28     V73    10.001   .     S
V29     V30    10.0   .     S
V29     V74    10.001   .     S
V30     V28    10.0   1_556     S
V30     V75    10.001   .     S
V31     V33    10.0   1_554     S
V31     V32    10.0   .     S
V31     V34    9.999   .     S
V31     V58    10.001   .     S
V32     V33    10.0   .     S
V32     V35    9.999   .     S
V32     V59    10.001   .     S
V33     V31    10.0   1_556     S
V33     V25    10.0   1_556     S
V33     V36    9.999   .     S
V33     V60    10.001   .     S
V34     V35    10.0   .     S
V34     V36    10.0   1_554     S
V34     V21    10.0   1_554     S
V34     V37    10.001   .     S
V35     V36    10.0   .     S
V35     V38    10.001   .     S
V36     V34    10.0   1_556     S
V36     V39    10.001   .     S
V37     V46    10.0   .     S
V37     V38    10.0   .     S
V37     V39    10.0   1_554     S
V37     V40    9.999   1_655     S
V37     V48    10.0   1_554     S
V38     V47    10.0   .     S
V38     V39    10.0   .     S
V38     V41    9.999   1_655     S
V38     V46    10.0   .     S
V39     V48    10.0   .     S
V39     V37    10.0   1_556     S
V39     V42    9.999   1_655     S
V39     V47    10.0   .     S
V40     V49    10.0   .     S
V40     V42    10.0   1_554     S
V40     V41    10.0   .     S
V40     V37    9.999   1_455     S
V40     V50    10.0   .     S
V41     V50    10.0   .     S
V41     V42    10.0   .     S
V41     V38    9.999   1_455     S
V41     V51    10.0   .     S
V42     V51    10.0   .     S
V42     V40    10.0   1_556     S
V42     V39    9.999   1_455     S
V42     V49    10.0   1_556     S
V43     V53    10.0   1_655     S
V43     V45    10.0   1_554     S
V43     V44    10.0   .     S
V43     V52    10.0   1_655     S
V43     V46    9.999   .     S
V43     V103    10.001   .     S
V44     V54    10.0   1_655     S
V44     V45    10.0   .     S
V44     V53    10.0   1_655     S
V44     V47    9.999   .     S
V44     V104    10.001   .     S
V45     V52    10.0   1_656     S
V45     V43    10.0   1_556     S
V45     V54    10.0   1_655     S
V45     V48    9.999   .     S
V45     V105    10.001   .     S
V46     V48    10.0   1_554     S
V46     V47    10.0   .     S
V47     V48    10.0   .     S
V48     V46    10.0   1_556     S
V48     V37    10.0   1_556     S
V49     V50    10.0   .     S
V49     V51    10.0   1_554     S
V49     V42    10.0   1_554     S
V49     V52    9.999   .     S
V50     V51    10.0   .     S
V50     V53    9.999   .     S
V51     V49    10.0   1_556     S
V51     V54    9.999   .     S
V52     V45    10.0   1_454     S
V52     V53    10.0   .     S
V52     V54    10.0   1_554     S
V52     V43    10.0   1_455     S
V52     V97    10.001   .     S
V53     V43    10.0   1_455     S
V53     V54    10.0   .     S
V53     V44    10.0   1_455     S
V53     V98    10.001   .     S
V54     V44    10.0   1_455     S
V54     V52    10.0   1_556     S
V54     V45    10.0   1_455     S
V54     V99    10.001   .     S
V55     V70    10.0   .     S
V55     V56    10.0   .     S
V55     V57    10.0   1_554     S
V55     V58    9.999   1_545     S
V55     V72    10.0   1_554     S
V55     V91    10.001   .     S
V56     V71    10.0   .     S
V56     V57    10.0   .     S
V56     V59    9.999   1_545     S
V56     V70    10.0   .     S
V56     V92    10.001   .     S
V57     V72    10.0   .     S
V57     V55    10.0   1_556     S
V57     V60    9.999   1_545     S
V57     V71    10.0   .     S
V57     V93    10.001   .     S
V58     V61    10.0   .     S
V58     V60    10.0   1_554     S
V58     V59    10.0   .     S
V58     V55    9.999   1_565     S
V58     V62    10.0   .     S
V59     V62    10.0   .     S
V59     V60    10.0   .     S
V59     V56    9.999   1_565     S
V59     V63    10.0   .     S
V60     V63    10.0   .     S
V60     V58    10.0   1_556     S
V60     V57    9.999   1_565     S
V60     V61    10.0   1_556     S
V61     V62    10.0   .     S
V61     V63    10.0   1_554     S
V61     V60    10.0   1_554     S
V61     V64    9.999   .     S
V62     V63    10.0   .     S
V62     V65    9.999   .     S
V63     V61    10.0   1_556     S
V63     V66    9.999   .     S
V64     V69    10.0   1_564     S
V64     V65    10.0   .     S
V64     V66    10.0   1_554     S
V64     V67    10.0   1_565     S
V65     V67    10.0   1_565     S
V65     V66    10.0   .     S
V65     V68    10.0   1_565     S
V66     V68    10.0   1_565     S
V66     V64    10.0   1_556     S
V66     V69    10.0   1_565     S
V67     V65    10.0   1_545     S
V67     V69    10.0   1_554     S
V67     V68    10.0   .     S
V67     V64    10.0   1_545     S
V67     V70    9.999   .     S
V68     V66    10.0   1_545     S
V68     V69    10.0   .     S
V68     V65    10.0   1_545     S
V68     V71    9.999   .     S
V69     V64    10.0   1_546     S
V69     V67    10.0   1_556     S
V69     V66    10.0   1_545     S
V69     V72    9.999   .     S
V70     V72    10.0   1_554     S
V70     V71    10.0   .     S
V70     V106    10.001   .     S
V71     V72    10.0   .     S
V71     V107    10.001   .     S
V72     V70    10.0   1_556     S
V72     V55    10.0   1_556     S
V72     V108    10.001   .     S
V73     V81    10.0   1_554     S
V73     V74    10.0   .     S
V73     V75    10.0   1_554     S
V73     V76    9.999   .     S
V73     V79    10.0   .     S
V74     V79    10.0   .     S
V74     V75    10.0   .     S
V74     V77    9.999   .     S
V74     V80    10.0   .     S
V75     V80    10.0   .     S
V75     V73    10.0   1_556     S
V75     V78    9.999   .     S
V75     V81    10.0   .     S
V76     V85    10.0   .     S
V76     V77    10.0   .     S
V76     V78    10.0   1_554     S
V76     V87    10.0   1_554     S
V76     V100    10.001   .     S
V77     V86    10.0   .     S
V77     V78    10.0   .     S
V77     V85    10.0   .     S
V77     V101    10.001   .     S
V78     V87    10.0   .     S
V78     V76    10.0   1_556     S
V78     V86    10.0   .     S
V78     V102    10.001   .     S
V79     V81    10.0   1_554     S
V79     V80    10.0   .     S
V79     V82    9.999   .     S
V80     V81    10.0   .     S
V80     V83    9.999   .     S
V81     V73    10.0   1_556     S
V81     V79    10.0   1_556     S
V81     V84    9.999   .     S
V82     V88    10.0   .     S
V82     V84    10.0   1_554     S
V82     V83    10.0   .     S
V82     V89    10.0   .     S
V83     V89    10.0   .     S
V83     V84    10.0   .     S
V83     V90    10.0   .     S
V84     V90    10.0   .     S
V84     V82    10.0   1_556     S
V84     V88    10.0   1_556     S
V85     V87    10.0   1_554     S
V85     V86    10.0   .     S
V85     V88    9.999   .     S
V85     V94    10.001   .     S
V86     V87    10.0   .     S
V86     V89    9.999   .     S
V86     V95    10.001   .     S
V87     V85    10.0   1_556     S
V87     V76    10.0   1_556     S
V87     V90    9.999   .     S
V87     V96    10.001   .     S
V88     V89    10.0   .     S
V88     V90    10.0   1_554     S
V88     V84    10.0   1_554     S
V89     V90    10.0   .     S
V90     V88    10.0   1_556     S
V91     V106    10.0   .     S
V91     V92    10.0   .     S
V91     V93    10.0   1_554     S
V91     V94    9.999   1_655     S
V91     V108    10.0   1_554     S
V92     V107    10.0   .     S
V92     V93    10.0   .     S
V92     V95    9.999   1_655     S
V92     V106    10.0   .     S
V93     V108    10.0   .     S
V93     V91    10.0   1_556     S
V93     V96    9.999   1_655     S
V93     V107    10.0   .     S
V94     V100    10.0   .     S
V94     V96    10.0   1_554     S
V94     V95    10.0   .     S
V94     V91    9.999   1_455     S
V94     V101    10.0   .     S
V95     V101    10.0   .     S
V95     V96    10.0   .     S
V95     V92    9.999   1_455     S
V95     V102    10.0   .     S
V96     V102    10.0   .     S
V96     V94    10.0   1_556     S
V96     V93    9.999   1_455     S
V96     V100    10.0   1_556     S
V97     V105    10.0   1_454     S
V97     V98    10.0   .     S
V97     V99    10.0   1_554     S
V97     V103    10.0   1_455     S
V97     V100    9.999   .     S
V98     V103    10.0   1_455     S
V98     V99    10.0   .     S
V98     V104    10.0   1_455     S
V98     V101    9.999   .     S
V99     V104    10.0   1_455     S
V99     V97    10.0   1_556     S
V99     V105    10.0   1_455     S
V99     V102    9.999   .     S
V100     V101    10.0   .     S
V100     V102    10.0   1_554     S
V100     V96    10.0   1_554     S
V101     V102    10.0   .     S
V102     V100    10.0   1_556     S
V103     V98    10.0   1_655     S
V103     V105    10.0   1_554     S
V103     V104    10.0   .     S
V103     V97    10.0   1_655     S
V103     V106    9.999   .     S
V104     V99    10.0   1_655     S
V104     V105    10.0   .     S
V104     V98    10.0   1_655     S
V104     V107    9.999   .     S
V105     V97    10.0   1_656     S
V105     V103    10.0   1_556     S
V105     V99    10.0   1_655     S
V105     V108    9.999   .     S
V106     V108    10.0   1_554     S
V106     V107    10.0   .     S
V107     V108    10.0   .     S
V108     V106    10.0   1_556     S
V108     V91    10.0   1_556     S
