data_wmq
_audit_creation_date              2019-12-31
_audit_creation_method            'Pymatgen'
_symmetry_space_group_name_H-M    'P1'
_symmetry_Int_Tables_number       1
loop_
_symmetry_equiv_pos_as_xyz
  x,y,z
_cell_length_a                    77.0781
_cell_length_b                    77.0781
_cell_length_c                    30.0
_cell_angle_alpha                 90.0
_cell_angle_beta                 90.0
_cell_angle_gamma                 120.0
loop_
_atom_site_label
_atom_site_type_symbol
_atom_site_fract_x
_atom_site_fract_y
_atom_site_fract_z
V1     V     0.9351   0.7405   0.0833
V2     V     0.9351   0.7405   0.4167
V3     V     0.9351   0.7405   0.75
V4     V     0.8613   0.5928   0.0278
V5     V     0.8613   0.5928   0.3611
V6     V     0.8613   0.5928   0.6944
V7     V     0.1387   0.7315   0.3056
V8     V     0.1387   0.7315   0.6389
V9     V     0.1387   0.7315   0.9722
V10     V     0.0649   0.8054   0.25
V11     V     0.0649   0.8054   0.5833
V12     V     0.0649   0.8054   0.9167
V13     V     0.9261   0.5279   0.1944
V14     V     0.9261   0.5279   0.5278
V15     V     0.9261   0.5279   0.8611
V16     V     0.0739   0.6018   0.1389
V17     V     0.0739   0.6018   0.4722
V18     V     0.0739   0.6018   0.8056
V19     V     0.9261   0.3982   0.1944
V20     V     0.9261   0.3982   0.5278
V21     V     0.9261   0.3982   0.8611
V22     V     0.0739   0.4721   0.1389
V23     V     0.0739   0.4721   0.4722
V24     V     0.0739   0.4721   0.8056
V25     V     0.1387   0.4072   0.3056
V26     V     0.1387   0.4072   0.6389
V27     V     0.1387   0.4072   0.9722
V28     V     0.0649   0.2595   0.25
V29     V     0.0649   0.2595   0.5833
V30     V     0.0649   0.2595   0.9167
V31     V     0.9351   0.1946   0.0833
V32     V     0.9351   0.1946   0.4167
V33     V     0.9351   0.1946   0.75
V34     V     0.8613   0.2685   0.0278
V35     V     0.8613   0.2685   0.3611
V36     V     0.8613   0.2685   0.6944
V37     V     0.3982   0.4721   0.1389
V38     V     0.3982   0.4721   0.4722
V39     V     0.3982   0.4721   0.8056
V40     V     0.4721   0.3982   0.1944
V41     V     0.4721   0.3982   0.5278
V42     V     0.4721   0.3982   0.8611
V43     V     0.4072   0.2685   0.0278
V44     V     0.4072   0.2685   0.3611
V45     V     0.4072   0.2685   0.6944
V46     V     0.2595   0.1946   0.0833
V47     V     0.2595   0.1946   0.4167
V48     V     0.2595   0.1946   0.75
V49     V     0.2685   0.4072   0.3056
V50     V     0.2685   0.4072   0.6389
V51     V     0.2685   0.4072   0.9722
V52     V     0.1946   0.2595   0.25
V53     V     0.1946   0.2595   0.5833
V54     V     0.1946   0.2595   0.9167
V55     V     0.7405   0.8054   0.25
V56     V     0.7405   0.8054   0.5833
V57     V     0.7405   0.8054   0.9167
V58     V     0.5928   0.7315   0.3056
V59     V     0.5928   0.7315   0.6389
V60     V     0.5928   0.7315   0.9722
V61     V     0.6018   0.5279   0.1944
V62     V     0.6018   0.5279   0.5278
V63     V     0.6018   0.5279   0.8611
V64     V     0.5279   0.6018   0.1389
V65     V     0.5279   0.6018   0.4722
V66     V     0.5279   0.6018   0.8056
V67     V     0.8054   0.7405   0.0833
V68     V     0.8054   0.7405   0.4167
V69     V     0.8054   0.7405   0.75
V70     V     0.7315   0.5928   0.0278
V71     V     0.7315   0.5928   0.3611
V72     V     0.7315   0.5928   0.6944
V73     V     0.5928   0.8613   0.3056
V74     V     0.5928   0.8613   0.6389
V75     V     0.5928   0.8613   0.9722
V76     V     0.7405   0.9351   0.25
V77     V     0.7405   0.9351   0.5833
V78     V     0.7405   0.9351   0.9167
V79     V     0.8054   0.0649   0.0833
V80     V     0.8054   0.0649   0.4167
V81     V     0.8054   0.0649   0.75
V82     V     0.7315   0.1387   0.0278
V83     V     0.7315   0.1387   0.3611
V84     V     0.7315   0.1387   0.6944
V85     V     0.6018   0.0739   0.1944
V86     V     0.6018   0.0739   0.5278
V87     V     0.6018   0.0739   0.8611
V88     V     0.5279   0.9261   0.1389
V89     V     0.5279   0.9261   0.4722
V90     V     0.5279   0.9261   0.8056
V91     V     0.4721   0.0739   0.1944
V92     V     0.4721   0.0739   0.5278
V93     V     0.4721   0.0739   0.8611
V94     V     0.3982   0.9261   0.1389
V95     V     0.3982   0.9261   0.4722
V96     V     0.3982   0.9261   0.8056
V97     V     0.2685   0.8613   0.3056
V98     V     0.2685   0.8613   0.6389
V99     V     0.2685   0.8613   0.9722
V100     V     0.1946   0.9351   0.25
V101     V     0.1946   0.9351   0.5833
V102     V     0.1946   0.9351   0.9167
V103     V     0.4072   0.1387   0.0278
V104     V     0.4072   0.1387   0.3611
V105     V     0.4072   0.1387   0.6944
V106     V     0.2595   0.0649   0.0833
V107     V     0.2595   0.0649   0.4167
V108     V     0.2595   0.0649   0.75
loop_
_geom_bond_atom_site_label_1
_geom_bond_atom_site_label_2
_geom_bond_distance
_geom_bond_site_symmetry_2
_ccdc_geom_bond_type
V1     V4    10.0   .     S
V1     V2    10.0   .     S
V1     V3    10.0   1_554     S
V1     V10    10.0   1_655     S
V1     V12    10.0   1_654     S
V1     V67    10.0   .     S
V2     V5    10.0   .     S
V2     V3    10.0   .     S
V2     V11    10.0   1_655     S
V2     V10    10.0   1_655     S
V2     V68    10.0   .     S
V3     V6    10.0   .     S
V3     V1    10.0   1_556     S
V3     V12    10.0   1_655     S
V3     V11    10.0   1_655     S
V3     V69    10.0   .     S
V4     V15    10.0   1_554     S
V4     V13    10.0   .     S
V4     V5    10.0   .     S
V4     V6    10.0   1_554     S
V4     V70    10.0   .     S
V5     V13    10.0   .     S
V5     V14    10.0   .     S
V5     V6    10.0   .     S
V5     V71    10.0   .     S
V6     V14    10.0   .     S
V6     V15    10.0   .     S
V6     V4    10.0   1_556     S
V6     V72    10.0   .     S
V7     V10    10.0   .     S
V7     V9    10.0   1_554     S
V7     V8    10.0   .     S
V7     V17    10.0   .     S
V7     V16    10.0   .     S
V7     V97    10.0   .     S
V8     V11    10.0   .     S
V8     V9    10.0   .     S
V8     V18    10.0   .     S
V8     V17    10.0   .     S
V8     V98    10.0   .     S
V9     V12    10.0   .     S
V9     V7    10.0   1_556     S
V9     V16    10.0   1_556     S
V9     V18    10.0   .     S
V9     V99    10.0   .     S
V10     V1    10.0   1_455     S
V10     V2    10.0   1_455     S
V10     V12    10.0   1_554     S
V10     V11    10.0   .     S
V10     V100    10.0   .     S
V11     V2    10.0   1_455     S
V11     V3    10.0   1_455     S
V11     V12    10.0   .     S
V11     V101    10.0   .     S
V12     V3    10.0   1_455     S
V12     V1    10.0   1_456     S
V12     V10    10.0   1_556     S
V12     V102    10.0   .     S
V13     V16    10.0   1_655     S
V13     V15    10.0   1_554     S
V13     V14    10.0   .     S
V13     V19    10.0   .     S
V14     V17    10.0   1_655     S
V14     V15    10.0   .     S
V14     V20    10.0   .     S
V15     V4    10.0   1_556     S
V15     V18    10.0   1_655     S
V15     V13    10.0   1_556     S
V15     V21    10.0   .     S
V16     V13    10.0   1_455     S
V16     V17    10.0   .     S
V16     V18    10.0   1_554     S
V16     V9    10.0   1_554     S
V16     V22    10.0   .     S
V17     V14    10.0   1_455     S
V17     V18    10.0   .     S
V17     V23    10.0   .     S
V18     V15    10.0   1_455     S
V18     V16    10.0   1_556     S
V18     V24    10.0   .     S
V19     V22    10.0   1_655     S
V19     V21    10.0   1_554     S
V19     V20    10.0   .     S
V19     V35    10.0   .     S
V19     V34    10.0   .     S
V20     V23    10.0   1_655     S
V20     V21    10.0   .     S
V20     V36    10.0   .     S
V20     V35    10.0   .     S
V21     V24    10.0   1_655     S
V21     V19    10.0   1_556     S
V21     V34    10.0   1_556     S
V21     V36    10.0   .     S
V22     V19    10.0   1_455     S
V22     V23    10.0   .     S
V22     V24    10.0   1_554     S
V22     V27    10.0   1_554     S
V22     V25    10.0   .     S
V23     V20    10.0   1_455     S
V23     V24    10.0   .     S
V23     V25    10.0   .     S
V23     V26    10.0   .     S
V24     V21    10.0   1_455     S
V24     V22    10.0   1_556     S
V24     V26    10.0   .     S
V24     V27    10.0   .     S
V25     V28    10.0   .     S
V25     V27    10.0   1_554     S
V25     V26    10.0   .     S
V25     V49    10.0   .     S
V26     V29    10.0   .     S
V26     V27    10.0   .     S
V26     V50    10.0   .     S
V27     V22    10.0   1_556     S
V27     V30    10.0   .     S
V27     V25    10.0   1_556     S
V27     V51    10.0   .     S
V28     V30    10.0   1_554     S
V28     V29    10.0   .     S
V28     V31    10.0   1_455     S
V28     V32    10.0   1_455     S
V28     V52    10.0   .     S
V29     V30    10.0   .     S
V29     V32    10.0   1_455     S
V29     V33    10.0   1_455     S
V29     V53    10.0   .     S
V30     V28    10.0   1_556     S
V30     V33    10.0   1_455     S
V30     V31    10.0   1_456     S
V30     V54    10.0   .     S
V31     V28    10.0   1_655     S
V31     V30    10.0   1_654     S
V31     V34    10.0   .     S
V31     V32    10.0   .     S
V31     V33    10.0   1_554     S
V31     V79    10.0   .     S
V32     V29    10.0   1_655     S
V32     V28    10.0   1_655     S
V32     V35    10.0   .     S
V32     V33    10.0   .     S
V32     V80    10.0   .     S
V33     V30    10.0   1_655     S
V33     V29    10.0   1_655     S
V33     V36    10.0   .     S
V33     V31    10.0   1_556     S
V33     V81    10.0   .     S
V34     V21    10.0   1_554     S
V34     V35    10.0   .     S
V34     V36    10.0   1_554     S
V34     V82    10.0   .     S
V35     V36    10.0   .     S
V35     V83    10.0   .     S
V36     V34    10.0   1_556     S
V36     V84    10.0   .     S
V37     V40    10.0   .     S
V37     V38    10.0   .     S
V37     V39    10.0   1_554     S
V37     V51    10.0   1_554     S
V37     V49    10.0   .     S
V37     V64    10.0   .     S
V38     V41    10.0   .     S
V38     V39    10.0   .     S
V38     V49    10.0   .     S
V38     V50    10.0   .     S
V38     V65    10.0   .     S
V39     V42    10.0   .     S
V39     V37    10.0   1_556     S
V39     V50    10.0   .     S
V39     V51    10.0   .     S
V39     V66    10.0   .     S
V40     V42    10.0   1_554     S
V40     V41    10.0   .     S
V40     V44    10.0   .     S
V40     V43    10.0   .     S
V40     V61    10.0   .     S
V41     V42    10.0   .     S
V41     V45    10.0   .     S
V41     V44    10.0   .     S
V41     V62    10.0   .     S
V42     V40    10.0   1_556     S
V42     V43    10.0   1_556     S
V42     V45    10.0   .     S
V42     V63    10.0   .     S
V43     V42    10.0   1_554     S
V43     V46    10.0   .     S
V43     V44    10.0   .     S
V43     V45    10.0   1_554     S
V43     V103    10.0   .     S
V44     V47    10.0   .     S
V44     V45    10.0   .     S
V44     V104    10.0   .     S
V45     V48    10.0   .     S
V45     V43    10.0   1_556     S
V45     V105    10.0   .     S
V46     V52    10.0   .     S
V46     V54    10.0   1_554     S
V46     V47    10.0   .     S
V46     V48    10.0   1_554     S
V46     V106    10.0   .     S
V47     V53    10.0   .     S
V47     V52    10.0   .     S
V47     V48    10.0   .     S
V47     V107    10.0   .     S
V48     V54    10.0   .     S
V48     V53    10.0   .     S
V48     V46    10.0   1_556     S
V48     V108    10.0   .     S
V49     V52    10.0   .     S
V49     V51    10.0   1_554     S
V49     V50    10.0   .     S
V50     V53    10.0   .     S
V50     V51    10.0   .     S
V51     V37    10.0   1_556     S
V51     V54    10.0   .     S
V51     V49    10.0   1_556     S
V52     V54    10.0   1_554     S
V52     V53    10.0   .     S
V53     V54    10.0   .     S
V54     V46    10.0   1_556     S
V54     V52    10.0   1_556     S
V55     V58    10.0   .     S
V55     V57    10.0   1_554     S
V55     V56    10.0   .     S
V55     V67    10.0   .     S
V55     V68    10.0   .     S
V55     V76    10.0   .     S
V56     V59    10.0   .     S
V56     V57    10.0   .     S
V56     V68    10.0   .     S
V56     V69    10.0   .     S
V56     V77    10.0   .     S
V57     V60    10.0   .     S
V57     V55    10.0   1_556     S
V57     V69    10.0   .     S
V57     V67    10.0   1_556     S
V57     V78    10.0   .     S
V58     V60    10.0   1_554     S
V58     V59    10.0   .     S
V58     V65    10.0   .     S
V58     V64    10.0   .     S
V58     V73    10.0   .     S
V59     V60    10.0   .     S
V59     V66    10.0   .     S
V59     V65    10.0   .     S
V59     V74    10.0   .     S
V60     V58    10.0   1_556     S
V60     V64    10.0   1_556     S
V60     V66    10.0   .     S
V60     V75    10.0   .     S
V61     V64    10.0   .     S
V61     V63    10.0   1_554     S
V61     V62    10.0   .     S
V61     V71    10.0   .     S
V61     V70    10.0   .     S
V62     V65    10.0   .     S
V62     V63    10.0   .     S
V62     V72    10.0   .     S
V62     V71    10.0   .     S
V63     V66    10.0   .     S
V63     V61    10.0   1_556     S
V63     V70    10.0   1_556     S
V63     V72    10.0   .     S
V64     V60    10.0   1_554     S
V64     V65    10.0   .     S
V64     V66    10.0   1_554     S
V65     V66    10.0   .     S
V66     V64    10.0   1_556     S
V67     V57    10.0   1_554     S
V67     V70    10.0   .     S
V67     V68    10.0   .     S
V67     V69    10.0   1_554     S
V68     V71    10.0   .     S
V68     V69    10.0   .     S
V69     V72    10.0   .     S
V69     V67    10.0   1_556     S
V70     V63    10.0   1_554     S
V70     V71    10.0   .     S
V70     V72    10.0   1_554     S
V71     V72    10.0   .     S
V72     V70    10.0   1_556     S
V73     V76    10.0   .     S
V73     V75    10.0   1_554     S
V73     V74    10.0   .     S
V73     V89    10.0   .     S
V73     V88    10.0   .     S
V74     V77    10.0   .     S
V74     V75    10.0   .     S
V74     V90    10.0   .     S
V74     V89    10.0   .     S
V75     V78    10.0   .     S
V75     V73    10.0   1_556     S
V75     V88    10.0   1_556     S
V75     V90    10.0   .     S
V76     V78    10.0   1_554     S
V76     V77    10.0   .     S
V76     V79    10.0   1_565     S
V76     V80    10.0   1_565     S
V77     V78    10.0   .     S
V77     V80    10.0   1_565     S
V77     V81    10.0   1_565     S
V78     V76    10.0   1_556     S
V78     V81    10.0   1_565     S
V78     V79    10.0   1_566     S
V79     V76    10.0   1_545     S
V79     V78    10.0   1_544     S
V79     V82    10.0   .     S
V79     V80    10.0   .     S
V79     V81    10.0   1_554     S
V80     V77    10.0   1_545     S
V80     V76    10.0   1_545     S
V80     V83    10.0   .     S
V80     V81    10.0   .     S
V81     V78    10.0   1_545     S
V81     V77    10.0   1_545     S
V81     V84    10.0   .     S
V81     V79    10.0   1_556     S
V82     V83    10.0   .     S
V82     V84    10.0   1_554     S
V82     V87    10.0   1_554     S
V82     V85    10.0   .     S
V83     V84    10.0   .     S
V83     V85    10.0   .     S
V83     V86    10.0   .     S
V84     V82    10.0   1_556     S
V84     V86    10.0   .     S
V84     V87    10.0   .     S
V85     V88    10.0   1_545     S
V85     V87    10.0   1_554     S
V85     V86    10.0   .     S
V85     V91    10.0   .     S
V86     V89    10.0   1_545     S
V86     V87    10.0   .     S
V86     V92    10.0   .     S
V87     V82    10.0   1_556     S
V87     V90    10.0   1_545     S
V87     V85    10.0   1_556     S
V87     V93    10.0   .     S
V88     V75    10.0   1_554     S
V88     V85    10.0   1_565     S
V88     V89    10.0   .     S
V88     V90    10.0   1_554     S
V88     V94    10.0   .     S
V89     V86    10.0   1_565     S
V89     V90    10.0   .     S
V89     V95    10.0   .     S
V90     V87    10.0   1_565     S
V90     V88    10.0   1_556     S
V90     V96    10.0   .     S
V91     V94    10.0   1_545     S
V91     V93    10.0   1_554     S
V91     V92    10.0   .     S
V91     V104    10.0   .     S
V91     V103    10.0   .     S
V92     V95    10.0   1_545     S
V92     V93    10.0   .     S
V92     V105    10.0   .     S
V92     V104    10.0   .     S
V93     V96    10.0   1_545     S
V93     V91    10.0   1_556     S
V93     V103    10.0   1_556     S
V93     V105    10.0   .     S
V94     V91    10.0   1_565     S
V94     V95    10.0   .     S
V94     V96    10.0   1_554     S
V94     V99    10.0   1_554     S
V94     V97    10.0   .     S
V95     V92    10.0   1_565     S
V95     V96    10.0   .     S
V95     V97    10.0   .     S
V95     V98    10.0   .     S
V96     V93    10.0   1_565     S
V96     V94    10.0   1_556     S
V96     V98    10.0   .     S
V96     V99    10.0   .     S
V97     V100    10.0   .     S
V97     V99    10.0   1_554     S
V97     V98    10.0   .     S
V98     V101    10.0   .     S
V98     V99    10.0   .     S
V99     V94    10.0   1_556     S
V99     V102    10.0   .     S
V99     V97    10.0   1_556     S
V100     V102    10.0   1_554     S
V100     V101    10.0   .     S
V100     V106    10.0   1_565     S
V100     V107    10.0   1_565     S
V101     V102    10.0   .     S
V101     V107    10.0   1_565     S
V101     V108    10.0   1_565     S
V102     V100    10.0   1_556     S
V102     V108    10.0   1_565     S
V102     V106    10.0   1_566     S
V103     V93    10.0   1_554     S
V103     V106    10.0   .     S
V103     V104    10.0   .     S
V103     V105    10.0   1_554     S
V104     V107    10.0   .     S
V104     V105    10.0   .     S
V105     V108    10.0   .     S
V105     V103    10.0   1_556     S
V106     V100    10.0   1_545     S
V106     V102    10.0   1_544     S
V106     V107    10.0   .     S
V106     V108    10.0   1_554     S
V107     V101    10.0   1_545     S
V107     V100    10.0   1_545     S
V107     V108    10.0   .     S
V108     V102    10.0   1_545     S
V108     V101    10.0   1_545     S
V108     V106    10.0   1_556     S
