data_wmr
_audit_creation_date              2019-12-31
_audit_creation_method            'Pymatgen'
_symmetry_space_group_name_H-M    'P1'
_symmetry_Int_Tables_number       1
loop_
_symmetry_equiv_pos_as_xyz
  x,y,z
_cell_length_a                    77.2948
_cell_length_b                    77.2948
_cell_length_c                    30.0
_cell_angle_alpha                 90.0
_cell_angle_beta                 90.0
_cell_angle_gamma                 120.0
loop_
_atom_site_label
_atom_site_type_symbol
_atom_site_fract_x
_atom_site_fract_y
_atom_site_fract_z
V1     V     0.9258   0.1863   0.2682
V2     V     0.9258   0.1863   0.6016
V3     V     0.9258   0.1863   0.9349
V4     V     0.0742   0.2605   0.2318
V5     V     0.0742   0.2605   0.5651
V6     V     0.0742   0.2605   0.8984
V7     V     0.7395   0.9258   0.0651
V8     V     0.7395   0.9258   0.3984
V9     V     0.7395   0.9258   0.7318
V10     V     0.8137   0.0742   0.1016
V11     V     0.8137   0.0742   0.4349
V12     V     0.8137   0.0742   0.7682
V13     V     0.7395   0.8137   0.2318
V14     V     0.7395   0.8137   0.5651
V15     V     0.7395   0.8137   0.8984
V16     V     0.8137   0.7395   0.2682
V17     V     0.8137   0.7395   0.6016
V18     V     0.8137   0.7395   0.9349
V19     V     0.0742   0.8137   0.0651
V20     V     0.0742   0.8137   0.3984
V21     V     0.0742   0.8137   0.7318
V22     V     0.9258   0.7395   0.1016
V23     V     0.9258   0.7395   0.4349
V24     V     0.9258   0.7395   0.7682
V25     V     0.1863   0.2605   0.0651
V26     V     0.1863   0.2605   0.3984
V27     V     0.1863   0.2605   0.7318
V28     V     0.2605   0.1863   0.1016
V29     V     0.2605   0.1863   0.4349
V30     V     0.2605   0.1863   0.7682
V31     V     0.1863   0.9258   0.2318
V32     V     0.1863   0.9258   0.5651
V33     V     0.1863   0.9258   0.8984
V34     V     0.2605   0.0742   0.2682
V35     V     0.2605   0.0742   0.6016
V36     V     0.2605   0.0742   0.9349
V37     V     0.853   0.2591   0.0095
V38     V     0.853   0.2591   0.3429
V39     V     0.853   0.2591   0.6762
V40     V     0.9272   0.4076   0.046
V41     V     0.9272   0.4076   0.3794
V42     V     0.9272   0.4076   0.7127
V43     V     0.853   0.5939   0.1762
V44     V     0.853   0.5939   0.5095
V45     V     0.853   0.5939   0.8429
V46     V     0.9272   0.5196   0.2127
V47     V     0.9272   0.5196   0.546
V48     V     0.9272   0.5196   0.8794
V49     V     0.5924   0.5196   0.046
V50     V     0.5924   0.5196   0.3794
V51     V     0.5924   0.5196   0.7127
V52     V     0.7409   0.5939   0.0095
V53     V     0.7409   0.5939   0.3429
V54     V     0.7409   0.5939   0.6762
V55     V     0.5924   0.0728   0.2127
V56     V     0.5924   0.0728   0.546
V57     V     0.5924   0.0728   0.8794
V58     V     0.7409   0.147   0.1762
V59     V     0.7409   0.147   0.5095
V60     V     0.7409   0.147   0.8429
V61     V     0.4804   0.0728   0.046
V62     V     0.4804   0.0728   0.3794
V63     V     0.4804   0.0728   0.7127
V64     V     0.4061   0.147   0.0095
V65     V     0.4061   0.147   0.3429
V66     V     0.4061   0.147   0.6762
V67     V     0.4061   0.2591   0.1762
V68     V     0.4061   0.2591   0.5095
V69     V     0.4061   0.2591   0.8429
V70     V     0.4804   0.4076   0.2127
V71     V     0.4804   0.4076   0.546
V72     V     0.4804   0.4076   0.8794
V73     V     0.0728   0.5924   0.2873
V74     V     0.0728   0.5924   0.6206
V75     V     0.0728   0.5924   0.954
V76     V     0.147   0.7409   0.3238
V77     V     0.147   0.7409   0.6571
V78     V     0.147   0.7409   0.9905
V79     V     0.0728   0.4804   0.1206
V80     V     0.0728   0.4804   0.454
V81     V     0.0728   0.4804   0.7873
V82     V     0.147   0.4061   0.1571
V83     V     0.147   0.4061   0.4905
V84     V     0.147   0.4061   0.8238
V85     V     0.5196   0.5924   0.1206
V86     V     0.5196   0.5924   0.454
V87     V     0.5196   0.5924   0.7873
V88     V     0.5939   0.7409   0.1571
V89     V     0.5939   0.7409   0.4905
V90     V     0.5939   0.7409   0.8238
V91     V     0.2591   0.4061   0.3238
V92     V     0.2591   0.4061   0.6571
V93     V     0.2591   0.4061   0.9905
V94     V     0.4076   0.4804   0.2873
V95     V     0.4076   0.4804   0.6206
V96     V     0.4076   0.4804   0.954
V97     V     0.5939   0.853   0.3238
V98     V     0.5939   0.853   0.6571
V99     V     0.5939   0.853   0.9905
V100     V     0.5196   0.9272   0.2873
V101     V     0.5196   0.9272   0.6206
V102     V     0.5196   0.9272   0.954
V103     V     0.2591   0.853   0.1571
V104     V     0.2591   0.853   0.4905
V105     V     0.2591   0.853   0.8238
V106     V     0.4076   0.9272   0.1206
V107     V     0.4076   0.9272   0.454
V108     V     0.4076   0.9272   0.7873
loop_
_geom_bond_atom_site_label_1
_geom_bond_atom_site_label_2
_geom_bond_distance
_geom_bond_site_symmetry_2
_ccdc_geom_bond_type
V1     V4    9.999   1_655     S
V1     V11    10.001   .     S
V1     V3    10.0   1_554     S
V1     V2    10.0   .     S
V1     V10    10.001   .     S
V1     V38    10.001   .     S
V2     V5    9.999   1_655     S
V2     V12    10.001   .     S
V2     V3    10.0   .     S
V2     V11    10.001   .     S
V2     V39    10.001   .     S
V3     V6    9.999   1_655     S
V3     V10    10.001   1_556     S
V3     V1    10.0   1_556     S
V3     V12    10.001   .     S
V3     V37    10.001   1_556     S
V4     V1    9.999   1_455     S
V4     V25    10.001   .     S
V4     V6    10.0   1_554     S
V4     V5    10.0   .     S
V4     V26    10.001   .     S
V4     V82    10.001   .     S
V5     V2    9.999   1_455     S
V5     V26    10.001   .     S
V5     V6    10.0   .     S
V5     V27    10.001   .     S
V5     V83    10.001   .     S
V6     V3    9.999   1_455     S
V6     V27    10.001   .     S
V6     V4    10.0   1_556     S
V6     V25    10.001   1_556     S
V6     V84    10.001   .     S
V7     V99    10.001   1_554     S
V7     V10    9.999   1_565     S
V7     V15    10.001   1_554     S
V7     V8    10.0   .     S
V7     V9    10.0   1_554     S
V7     V13    10.001   .     S
V8     V97    10.001   .     S
V8     V11    9.999   1_565     S
V8     V13    10.001   .     S
V8     V9    10.0   .     S
V8     V14    10.001   .     S
V9     V98    10.001   .     S
V9     V12    9.999   1_565     S
V9     V14    10.001   .     S
V9     V7    10.0   1_556     S
V9     V15    10.001   .     S
V10     V58    10.001   .     S
V10     V3    10.001   1_554     S
V10     V7    9.999   1_545     S
V10     V11    10.0   .     S
V10     V12    10.0   1_554     S
V11     V59    10.001   .     S
V11     V8    9.999   1_545     S
V11     V12    10.0   .     S
V12     V60    10.001   .     S
V12     V9    9.999   1_545     S
V12     V10    10.0   1_556     S
V13     V88    10.001   .     S
V13     V16    9.999   .     S
V13     V15    10.0   1_554     S
V13     V14    10.0   .     S
V14     V89    10.001   .     S
V14     V17    9.999   .     S
V14     V15    10.0   .     S
V15     V90    10.001   .     S
V15     V7    10.001   1_556     S
V15     V18    9.999   .     S
V15     V13    10.0   1_556     S
V16     V53    10.001   .     S
V16     V23    10.001   .     S
V16     V18    10.0   1_554     S
V16     V17    10.0   .     S
V16     V22    10.001   .     S
V17     V54    10.001   .     S
V17     V24    10.001   .     S
V17     V18    10.0   .     S
V17     V23    10.001   .     S
V18     V52    10.001   1_556     S
V18     V22    10.001   1_556     S
V18     V16    10.0   1_556     S
V18     V24    10.001   .     S
V19     V78    10.001   1_554     S
V19     V22    9.999   1_455     S
V19     V33    10.001   1_554     S
V19     V20    10.0   .     S
V19     V21    10.0   1_554     S
V19     V31    10.001   .     S
V20     V76    10.001   .     S
V20     V23    9.999   1_455     S
V20     V31    10.001   .     S
V20     V21    10.0   .     S
V20     V32    10.001   .     S
V21     V77    10.001   .     S
V21     V24    9.999   1_455     S
V21     V32    10.001   .     S
V21     V19    10.0   1_556     S
V21     V33    10.001   .     S
V22     V43    10.001   .     S
V22     V18    10.001   1_554     S
V22     V19    9.999   1_655     S
V22     V23    10.0   .     S
V22     V24    10.0   1_554     S
V23     V44    10.001   .     S
V23     V20    9.999   1_655     S
V23     V24    10.0   .     S
V24     V45    10.001   .     S
V24     V21    9.999   1_655     S
V24     V22    10.0   1_556     S
V25     V28    9.999   .     S
V25     V6    10.001   1_554     S
V25     V26    10.0   .     S
V25     V27    10.0   1_554     S
V25     V93    10.001   1_554     S
V26     V29    9.999   .     S
V26     V27    10.0   .     S
V26     V91    10.001   .     S
V27     V30    9.999   .     S
V27     V25    10.0   1_556     S
V27     V92    10.001   .     S
V28     V67    10.001   .     S
V28     V34    10.001   .     S
V28     V29    10.0   .     S
V28     V30    10.0   1_554     S
V28     V36    10.001   1_554     S
V29     V68    10.001   .     S
V29     V35    10.001   .     S
V29     V30    10.0   .     S
V29     V34    10.001   .     S
V30     V69    10.001   .     S
V30     V36    10.001   .     S
V30     V28    10.0   1_556     S
V30     V35    10.001   .     S
V31     V34    9.999   1_565     S
V31     V33    10.0   1_554     S
V31     V32    10.0   .     S
V31     V103    10.001   .     S
V32     V35    9.999   1_565     S
V32     V33    10.0   .     S
V32     V104    10.001   .     S
V33     V19    10.001   1_556     S
V33     V36    9.999   1_565     S
V33     V31    10.0   1_556     S
V33     V105    10.001   .     S
V34     V31    9.999   1_545     S
V34     V36    10.0   1_554     S
V34     V35    10.0   .     S
V34     V65    10.001   .     S
V35     V32    9.999   1_545     S
V35     V36    10.0   .     S
V35     V66    10.001   .     S
V36     V33    9.999   1_545     S
V36     V28    10.001   1_556     S
V36     V34    10.0   1_556     S
V36     V64    10.001   1_556     S
V37     V3    10.001   1_554     S
V37     V40    9.999   .     S
V37     V60    10.001   1_554     S
V37     V38    10.0   .     S
V37     V39    10.0   1_554     S
V37     V58    10.001   .     S
V38     V41    9.999   .     S
V38     V58    10.001   .     S
V38     V39    10.0   .     S
V38     V59    10.001   .     S
V39     V42    9.999   .     S
V39     V59    10.001   .     S
V39     V37    10.0   1_556     S
V39     V60    10.001   .     S
V40     V79    10.001   1_655     S
V40     V46    10.001   .     S
V40     V41    10.0   .     S
V40     V42    10.0   1_554     S
V40     V48    10.001   1_554     S
V41     V80    10.001   1_655     S
V41     V47    10.001   .     S
V41     V42    10.0   .     S
V41     V46    10.001   .     S
V42     V81    10.001   1_655     S
V42     V48    10.001   .     S
V42     V40    10.0   1_556     S
V42     V47    10.001   .     S
V43     V46    9.999   .     S
V43     V52    10.001   .     S
V43     V45    10.0   1_554     S
V43     V44    10.0   .     S
V43     V53    10.001   .     S
V44     V47    9.999   .     S
V44     V53    10.001   .     S
V44     V45    10.0   .     S
V44     V54    10.001   .     S
V45     V48    9.999   .     S
V45     V54    10.001   .     S
V45     V43    10.0   1_556     S
V45     V52    10.001   1_556     S
V46     V73    10.001   1_655     S
V46     V48    10.0   1_554     S
V46     V47    10.0   .     S
V47     V74    10.001   1_655     S
V47     V48    10.0   .     S
V48     V75    10.001   1_655     S
V48     V40    10.001   1_556     S
V48     V46    10.0   1_556     S
V49     V85    10.001   .     S
V49     V52    9.999   .     S
V49     V70    10.001   .     S
V49     V50    10.0   .     S
V49     V51    10.0   1_554     S
V49     V72    10.001   1_554     S
V50     V86    10.001   .     S
V50     V53    9.999   .     S
V50     V71    10.001   .     S
V50     V51    10.0   .     S
V50     V70    10.001   .     S
V51     V87    10.001   .     S
V51     V54    9.999   .     S
V51     V72    10.001   .     S
V51     V49    10.0   1_556     S
V51     V71    10.001   .     S
V52     V18    10.001   1_554     S
V52     V45    10.001   1_554     S
V52     V53    10.0   .     S
V52     V54    10.0   1_554     S
V53     V54    10.0   .     S
V54     V52    10.0   1_556     S
V55     V58    9.999   .     S
V55     V62    10.001   .     S
V55     V57    10.0   1_554     S
V55     V56    10.0   .     S
V55     V61    10.001   .     S
V55     V100    10.001   1_545     S
V56     V59    9.999   .     S
V56     V63    10.001   .     S
V56     V57    10.0   .     S
V56     V62    10.001   .     S
V56     V101    10.001   1_545     S
V57     V60    9.999   .     S
V57     V61    10.001   1_556     S
V57     V55    10.0   1_556     S
V57     V63    10.001   .     S
V57     V102    10.001   1_545     S
V58     V60    10.0   1_554     S
V58     V59    10.0   .     S
V59     V60    10.0   .     S
V60     V37    10.001   1_556     S
V60     V58    10.0   1_556     S
V61     V57    10.001   1_554     S
V61     V64    9.999   .     S
V61     V62    10.0   .     S
V61     V63    10.0   1_554     S
V61     V106    10.001   1_545     S
V62     V65    9.999   .     S
V62     V63    10.0   .     S
V62     V107    10.001   1_545     S
V63     V66    9.999   .     S
V63     V61    10.0   1_556     S
V63     V108    10.001   1_545     S
V64     V36    10.001   1_554     S
V64     V69    10.001   1_554     S
V64     V65    10.0   .     S
V64     V66    10.0   1_554     S
V64     V67    10.001   .     S
V65     V67    10.001   .     S
V65     V66    10.0   .     S
V65     V68    10.001   .     S
V66     V68    10.001   .     S
V66     V64    10.0   1_556     S
V66     V69    10.001   .     S
V67     V70    9.999   .     S
V67     V69    10.0   1_554     S
V67     V68    10.0   .     S
V68     V71    9.999   .     S
V68     V69    10.0   .     S
V69     V64    10.001   1_556     S
V69     V72    9.999   .     S
V69     V67    10.0   1_556     S
V70     V72    10.0   1_554     S
V70     V71    10.0   .     S
V70     V94    10.001   .     S
V71     V72    10.0   .     S
V71     V95    10.001   .     S
V72     V49    10.001   1_556     S
V72     V70    10.0   1_556     S
V72     V96    10.001   .     S
V73     V46    10.001   1_455     S
V73     V76    9.999   .     S
V73     V79    10.001   .     S
V73     V75    10.0   1_554     S
V73     V74    10.0   .     S
V73     V80    10.001   .     S
V74     V47    10.001   1_455     S
V74     V77    9.999   .     S
V74     V80    10.001   .     S
V74     V75    10.0   .     S
V74     V81    10.001   .     S
V75     V48    10.001   1_455     S
V75     V78    9.999   .     S
V75     V81    10.001   .     S
V75     V73    10.0   1_556     S
V75     V79    10.001   1_556     S
V76     V104    10.001   .     S
V76     V78    10.0   1_554     S
V76     V77    10.0   .     S
V76     V103    10.001   .     S
V77     V105    10.001   .     S
V77     V78    10.0   .     S
V77     V104    10.001   .     S
V78     V19    10.001   1_556     S
V78     V103    10.001   1_556     S
V78     V76    10.0   1_556     S
V78     V105    10.001   .     S
V79     V40    10.001   1_455     S
V79     V82    9.999   .     S
V79     V75    10.001   1_554     S
V79     V80    10.0   .     S
V79     V81    10.0   1_554     S
V80     V41    10.001   1_455     S
V80     V83    9.999   .     S
V80     V81    10.0   .     S
V81     V42    10.001   1_455     S
V81     V84    9.999   .     S
V81     V79    10.0   1_556     S
V82     V91    10.001   .     S
V82     V83    10.0   .     S
V82     V84    10.0   1_554     S
V82     V93    10.001   1_554     S
V83     V92    10.001   .     S
V83     V84    10.0   .     S
V83     V91    10.001   .     S
V84     V93    10.001   .     S
V84     V82    10.0   1_556     S
V84     V92    10.001   .     S
V85     V88    9.999   .     S
V85     V96    10.001   1_554     S
V85     V86    10.0   .     S
V85     V87    10.0   1_554     S
V85     V94    10.001   .     S
V86     V89    9.999   .     S
V86     V94    10.001   .     S
V86     V87    10.0   .     S
V86     V95    10.001   .     S
V87     V90    9.999   .     S
V87     V95    10.001   .     S
V87     V85    10.0   1_556     S
V87     V96    10.001   .     S
V88     V97    10.001   .     S
V88     V89    10.0   .     S
V88     V90    10.0   1_554     S
V88     V99    10.001   1_554     S
V89     V98    10.001   .     S
V89     V90    10.0   .     S
V89     V97    10.001   .     S
V90     V99    10.001   .     S
V90     V88    10.0   1_556     S
V90     V98    10.001   .     S
V91     V94    9.999   .     S
V91     V93    10.0   1_554     S
V91     V92    10.0   .     S
V92     V95    9.999   .     S
V92     V93    10.0   .     S
V93     V25    10.001   1_556     S
V93     V96    9.999   .     S
V93     V82    10.001   1_556     S
V93     V91    10.0   1_556     S
V94     V96    10.0   1_554     S
V94     V95    10.0   .     S
V95     V96    10.0   .     S
V96     V85    10.001   1_556     S
V96     V94    10.0   1_556     S
V97     V100    9.999   .     S
V97     V99    10.0   1_554     S
V97     V98    10.0   .     S
V98     V101    9.999   .     S
V98     V99    10.0   .     S
V99     V7    10.001   1_556     S
V99     V102    9.999   .     S
V99     V88    10.001   1_556     S
V99     V97    10.0   1_556     S
V100     V55    10.001   1_565     S
V100     V102    10.0   1_554     S
V100     V101    10.0   .     S
V100     V106    10.001   .     S
V100     V107    10.001   .     S
V101     V56    10.001   1_565     S
V101     V102    10.0   .     S
V101     V107    10.001   .     S
V101     V108    10.001   .     S
V102     V57    10.001   1_565     S
V102     V100    10.0   1_556     S
V102     V108    10.001   .     S
V102     V106    10.001   1_556     S
V103     V78    10.001   1_554     S
V103     V106    9.999   .     S
V103     V104    10.0   .     S
V103     V105    10.0   1_554     S
V104     V107    9.999   .     S
V104     V105    10.0   .     S
V105     V108    9.999   .     S
V105     V103    10.0   1_556     S
V106     V61    10.001   1_565     S
V106     V102    10.001   1_554     S
V106     V107    10.0   .     S
V106     V108    10.0   1_554     S
V107     V62    10.001   1_565     S
V107     V108    10.0   .     S
V108     V63    10.001   1_565     S
V108     V106    10.0   1_556     S
