data_wms
_audit_creation_date              2019-12-31
_audit_creation_method            'Pymatgen'
_symmetry_space_group_name_H-M    'P1'
_symmetry_Int_Tables_number       1
loop_
_symmetry_equiv_pos_as_xyz
  x,y,z
_cell_length_a                    75.2757
_cell_length_b                    75.2757
_cell_length_c                    29.9997
_cell_angle_alpha                 90.0
_cell_angle_beta                 90.0
_cell_angle_gamma                 120.0
loop_
_atom_site_label
_atom_site_type_symbol
_atom_site_fract_x
_atom_site_fract_y
_atom_site_fract_z
V1     V     0.9308   0.5229   0.3219
V2     V     0.9308   0.5229   0.6552
V3     V     0.9308   0.5229   0.9886
V4     V     0.9308   0.4079   0.1552
V5     V     0.9308   0.4079   0.4886
V6     V     0.9308   0.4079   0.8219
V7     V     0.0692   0.4771   0.0114
V8     V     0.0692   0.4771   0.3448
V9     V     0.0692   0.4771   0.6781
V10     V     0.0692   0.5921   0.1781
V11     V     0.0692   0.5921   0.5114
V12     V     0.0692   0.5921   0.8448
V13     V     0.5975   0.8563   0.0997
V14     V     0.5975   0.8563   0.433
V15     V     0.5975   0.8563   0.7663
V16     V     0.5975   0.7412   0.2663
V17     V     0.5975   0.7412   0.5997
V18     V     0.5975   0.7412   0.933
V19     V     0.7359   0.8104   0.1225
V20     V     0.7359   0.8104   0.4559
V21     V     0.7359   0.8104   0.7892
V22     V     0.7359   0.9254   0.2892
V23     V     0.7359   0.9254   0.6225
V24     V     0.7359   0.9254   0.9559
V25     V     0.8104   0.0746   0.2108
V26     V     0.8104   0.0746   0.5441
V27     V     0.8104   0.0746   0.8775
V28     V     0.9254   0.1896   0.0441
V29     V     0.9254   0.1896   0.3775
V30     V     0.9254   0.1896   0.7108
V31     V     0.8563   0.2588   0.2337
V32     V     0.8563   0.2588   0.567
V33     V     0.8563   0.2588   0.9003
V34     V     0.7412   0.1437   0.067
V35     V     0.7412   0.1437   0.4003
V36     V     0.7412   0.1437   0.7337
V37     V     0.4079   0.4771   0.1781
V38     V     0.4079   0.4771   0.5114
V39     V     0.4079   0.4771   0.8448
V40     V     0.5229   0.5921   0.0114
V41     V     0.5229   0.5921   0.3448
V42     V     0.5229   0.5921   0.6781
V43     V     0.4771   0.4079   0.3219
V44     V     0.4771   0.4079   0.6552
V45     V     0.4771   0.4079   0.9886
V46     V     0.5921   0.5229   0.1552
V47     V     0.5921   0.5229   0.4886
V48     V     0.5921   0.5229   0.8219
V49     V     0.2588   0.8563   0.2663
V50     V     0.2588   0.8563   0.5997
V51     V     0.2588   0.8563   0.933
V52     V     0.1437   0.7412   0.0997
V53     V     0.1437   0.7412   0.433
V54     V     0.1437   0.7412   0.7663
V55     V     0.0746   0.8104   0.2892
V56     V     0.0746   0.8104   0.6225
V57     V     0.0746   0.8104   0.9559
V58     V     0.1896   0.9254   0.1225
V59     V     0.1896   0.9254   0.4559
V60     V     0.1896   0.9254   0.7892
V61     V     0.4079   0.9308   0.0114
V62     V     0.4079   0.9308   0.3448
V63     V     0.4079   0.9308   0.6781
V64     V     0.5229   0.9308   0.1781
V65     V     0.5229   0.9308   0.5114
V66     V     0.5229   0.9308   0.8448
V67     V     0.4771   0.0692   0.1552
V68     V     0.4771   0.0692   0.4886
V69     V     0.4771   0.0692   0.8219
V70     V     0.5921   0.0692   0.3219
V71     V     0.5921   0.0692   0.6552
V72     V     0.5921   0.0692   0.9886
V73     V     0.0746   0.2641   0.1225
V74     V     0.0746   0.2641   0.4559
V75     V     0.0746   0.2641   0.7892
V76     V     0.1896   0.2641   0.2892
V77     V     0.1896   0.2641   0.6225
V78     V     0.1896   0.2641   0.9559
V79     V     0.2588   0.4025   0.0997
V80     V     0.2588   0.4025   0.433
V81     V     0.2588   0.4025   0.7663
V82     V     0.1437   0.4025   0.2663
V83     V     0.1437   0.4025   0.5997
V84     V     0.1437   0.4025   0.933
V85     V     0.2641   0.0746   0.0441
V86     V     0.2641   0.0746   0.3775
V87     V     0.2641   0.0746   0.7108
V88     V     0.2641   0.1896   0.2108
V89     V     0.2641   0.1896   0.5441
V90     V     0.2641   0.1896   0.8775
V91     V     0.4025   0.2588   0.067
V92     V     0.4025   0.2588   0.4003
V93     V     0.4025   0.2588   0.7337
V94     V     0.4025   0.1437   0.2337
V95     V     0.4025   0.1437   0.567
V96     V     0.4025   0.1437   0.9003
V97     V     0.7412   0.5975   0.2337
V98     V     0.7412   0.5975   0.567
V99     V     0.7412   0.5975   0.9003
V100     V     0.8563   0.5975   0.067
V101     V     0.8563   0.5975   0.4003
V102     V     0.8563   0.5975   0.7337
V103     V     0.8104   0.7359   0.0441
V104     V     0.8104   0.7359   0.3775
V105     V     0.8104   0.7359   0.7108
V106     V     0.9255   0.7359   0.2108
V107     V     0.9255   0.7359   0.5441
V108     V     0.9255   0.7359   0.8775
loop_
_geom_bond_atom_site_label_1
_geom_bond_atom_site_label_2
_geom_bond_distance
_geom_bond_site_symmetry_2
_ccdc_geom_bond_type
V1     V5    10.0   .     S
V1     V3    10.0   1_554     S
V1     V2    10.0   .     S
V1     V4    10.0   .     S
V1     V10    10.0   1_655     S
V1     V101    10.001   .     S
V2     V6    10.0   .     S
V2     V3    10.0   .     S
V2     V5    10.0   .     S
V2     V11    10.0   1_655     S
V2     V102    10.001   .     S
V3     V4    10.0   1_556     S
V3     V1    10.0   1_556     S
V3     V6    10.0   .     S
V3     V12    10.0   1_655     S
V3     V100    10.001   1_556     S
V4     V3    10.0   1_554     S
V4     V5    10.0   .     S
V4     V6    10.0   1_554     S
V4     V7    10.0   1_655     S
V4     V31    10.001   .     S
V5     V6    10.0   .     S
V5     V8    10.0   1_655     S
V5     V32    10.001   .     S
V6     V4    10.0   1_556     S
V6     V9    10.0   1_655     S
V6     V33    10.001   .     S
V7     V4    10.0   1_455     S
V7     V10    10.0   .     S
V7     V12    10.0   1_554     S
V7     V8    10.0   .     S
V7     V9    10.0   1_554     S
V7     V84    10.001   1_554     S
V8     V5    10.0   1_455     S
V8     V11    10.0   .     S
V8     V10    10.0   .     S
V8     V9    10.0   .     S
V8     V82    10.001   .     S
V9     V6    10.0   1_455     S
V9     V12    10.0   .     S
V9     V11    10.0   .     S
V9     V7    10.0   1_556     S
V9     V83    10.001   .     S
V10     V1    10.0   1_455     S
V10     V12    10.0   1_554     S
V10     V11    10.0   .     S
V10     V52    10.001   .     S
V11     V2    10.0   1_455     S
V11     V12    10.0   .     S
V11     V53    10.001   .     S
V12     V3    10.0   1_455     S
V12     V7    10.0   1_556     S
V12     V10    10.0   1_556     S
V12     V54    10.001   .     S
V13     V18    10.0   1_554     S
V13     V14    10.0   .     S
V13     V15    10.0   1_554     S
V13     V16    10.0   .     S
V13     V24    10.0   1_554     S
V13     V64    10.001   .     S
V14     V16    10.0   .     S
V14     V15    10.0   .     S
V14     V17    10.0   .     S
V14     V22    10.0   .     S
V14     V65    10.001   .     S
V15     V17    10.0   .     S
V15     V13    10.0   1_556     S
V15     V18    10.0   .     S
V15     V23    10.0   .     S
V15     V66    10.001   .     S
V16     V18    10.0   1_554     S
V16     V17    10.0   .     S
V16     V19    10.0   .     S
V16     V41    10.001   .     S
V17     V18    10.0   .     S
V17     V20    10.0   .     S
V17     V42    10.001   .     S
V18     V13    10.0   1_556     S
V18     V16    10.0   1_556     S
V18     V21    10.0   .     S
V18     V40    10.001   1_556     S
V19     V24    10.0   1_554     S
V19     V22    10.0   .     S
V19     V20    10.0   .     S
V19     V21    10.0   1_554     S
V19     V103    10.001   .     S
V20     V22    10.0   .     S
V20     V23    10.0   .     S
V20     V21    10.0   .     S
V20     V104    10.001   .     S
V21     V23    10.0   .     S
V21     V24    10.0   .     S
V21     V19    10.0   1_556     S
V21     V105    10.001   .     S
V22     V24    10.0   1_554     S
V22     V23    10.0   .     S
V22     V25    10.001   1_565     S
V23     V24    10.0   .     S
V23     V26    10.001   1_565     S
V24     V13    10.0   1_556     S
V24     V19    10.0   1_556     S
V24     V22    10.0   1_556     S
V24     V27    10.001   1_565     S
V25     V34    10.0   .     S
V25     V28    10.0   .     S
V25     V29    10.0   .     S
V25     V27    10.0   1_554     S
V25     V26    10.0   .     S
V25     V22    10.001   1_545     S
V26     V35    10.0   .     S
V26     V29    10.0   .     S
V26     V30    10.0   .     S
V26     V27    10.0   .     S
V26     V23    10.001   1_545     S
V27     V36    10.0   .     S
V27     V30    10.0   .     S
V27     V28    10.0   1_556     S
V27     V25    10.0   1_556     S
V27     V24    10.001   1_545     S
V28     V27    10.0   1_554     S
V28     V29    10.0   .     S
V28     V30    10.0   1_554     S
V28     V33    10.0   1_554     S
V28     V73    10.001   1_655     S
V29     V30    10.0   .     S
V29     V31    10.0   .     S
V29     V74    10.001   1_655     S
V30     V28    10.0   1_556     S
V30     V32    10.0   .     S
V30     V75    10.001   1_655     S
V31     V34    10.0   .     S
V31     V35    10.0   .     S
V31     V33    10.0   1_554     S
V31     V32    10.0   .     S
V32     V35    10.0   .     S
V32     V36    10.0   .     S
V32     V33    10.0   .     S
V33     V28    10.0   1_556     S
V33     V36    10.0   .     S
V33     V34    10.0   1_556     S
V33     V31    10.0   1_556     S
V34     V33    10.0   1_554     S
V34     V35    10.0   .     S
V34     V36    10.0   1_554     S
V34     V72    10.001   1_554     S
V35     V36    10.0   .     S
V35     V70    10.001   .     S
V36     V34    10.0   1_556     S
V36     V71    10.001   .     S
V37     V41    10.0   .     S
V37     V39    10.0   1_554     S
V37     V38    10.0   .     S
V37     V40    10.0   .     S
V37     V43    10.0   .     S
V37     V79    10.001   .     S
V38     V42    10.0   .     S
V38     V39    10.0   .     S
V38     V41    10.0   .     S
V38     V44    10.0   .     S
V38     V80    10.001   .     S
V39     V40    10.0   1_556     S
V39     V37    10.0   1_556     S
V39     V42    10.0   .     S
V39     V45    10.0   .     S
V39     V81    10.001   .     S
V40     V46    10.0   .     S
V40     V39    10.0   1_554     S
V40     V41    10.0   .     S
V40     V42    10.0   1_554     S
V40     V18    10.001   1_554     S
V41     V47    10.0   .     S
V41     V42    10.0   .     S
V42     V48    10.0   .     S
V42     V40    10.0   1_556     S
V43     V47    10.0   .     S
V43     V46    10.0   .     S
V43     V45    10.0   1_554     S
V43     V44    10.0   .     S
V43     V92    10.001   .     S
V44     V48    10.0   .     S
V44     V47    10.0   .     S
V44     V45    10.0   .     S
V44     V93    10.001   .     S
V45     V46    10.0   1_556     S
V45     V48    10.0   .     S
V45     V43    10.0   1_556     S
V45     V91    10.001   1_556     S
V46     V45    10.0   1_554     S
V46     V47    10.0   .     S
V46     V48    10.0   1_554     S
V46     V97    10.001   .     S
V47     V48    10.0   .     S
V47     V98    10.001   .     S
V48     V46    10.0   1_556     S
V48     V99    10.001   .     S
V49     V58    10.0   .     S
V49     V52    10.0   .     S
V49     V53    10.0   .     S
V49     V51    10.0   1_554     S
V49     V50    10.0   .     S
V49     V62    10.001   .     S
V50     V59    10.0   .     S
V50     V53    10.0   .     S
V50     V54    10.0   .     S
V50     V51    10.0   .     S
V50     V63    10.001   .     S
V51     V60    10.0   .     S
V51     V54    10.0   .     S
V51     V52    10.0   1_556     S
V51     V49    10.0   1_556     S
V51     V61    10.001   1_556     S
V52     V51    10.0   1_554     S
V52     V53    10.0   .     S
V52     V54    10.0   1_554     S
V52     V57    10.0   1_554     S
V53     V54    10.0   .     S
V53     V55    10.0   .     S
V54     V52    10.0   1_556     S
V54     V56    10.0   .     S
V55     V58    10.0   .     S
V55     V57    10.0   1_554     S
V55     V56    10.0   .     S
V55     V59    10.0   .     S
V55     V106    10.001   1_455     S
V56     V59    10.0   .     S
V56     V57    10.0   .     S
V56     V60    10.0   .     S
V56     V107    10.001   1_455     S
V57     V52    10.0   1_556     S
V57     V60    10.0   .     S
V57     V55    10.0   1_556     S
V57     V58    10.0   1_556     S
V57     V108    10.001   1_455     S
V58     V57    10.0   1_554     S
V58     V59    10.0   .     S
V58     V60    10.0   1_554     S
V58     V85    10.001   1_565     S
V59     V60    10.0   .     S
V59     V86    10.001   1_565     S
V60     V58    10.0   1_556     S
V60     V87    10.001   1_565     S
V61     V66    10.0   1_554     S
V61     V64    10.0   .     S
V61     V62    10.0   .     S
V61     V63    10.0   1_554     S
V61     V67    10.0   1_565     S
V61     V51    10.001   1_554     S
V62     V64    10.0   .     S
V62     V65    10.0   .     S
V62     V63    10.0   .     S
V62     V68    10.0   1_565     S
V63     V65    10.0   .     S
V63     V66    10.0   .     S
V63     V61    10.0   1_556     S
V63     V69    10.0   1_565     S
V64     V66    10.0   1_554     S
V64     V65    10.0   .     S
V64     V70    10.0   1_565     S
V65     V66    10.0   .     S
V65     V71    10.0   1_565     S
V66     V61    10.0   1_556     S
V66     V64    10.0   1_556     S
V66     V72    10.0   1_565     S
V67     V61    10.0   1_545     S
V67     V72    10.0   1_554     S
V67     V70    10.0   .     S
V67     V68    10.0   .     S
V67     V69    10.0   1_554     S
V67     V94    10.001   .     S
V68     V62    10.0   1_545     S
V68     V70    10.0   .     S
V68     V71    10.0   .     S
V68     V69    10.0   .     S
V68     V95    10.001   .     S
V69     V63    10.0   1_545     S
V69     V71    10.0   .     S
V69     V72    10.0   .     S
V69     V67    10.0   1_556     S
V69     V96    10.001   .     S
V70     V64    10.0   1_545     S
V70     V72    10.0   1_554     S
V70     V71    10.0   .     S
V71     V65    10.0   1_545     S
V71     V72    10.0   .     S
V72     V34    10.001   1_556     S
V72     V66    10.0   1_545     S
V72     V67    10.0   1_556     S
V72     V70    10.0   1_556     S
V73     V28    10.001   1_455     S
V73     V76    10.0   .     S
V73     V78    10.0   1_554     S
V73     V74    10.0   .     S
V73     V75    10.0   1_554     S
V73     V82    10.0   .     S
V74     V29    10.001   1_455     S
V74     V77    10.0   .     S
V74     V76    10.0   .     S
V74     V75    10.0   .     S
V74     V83    10.0   .     S
V75     V30    10.001   1_455     S
V75     V78    10.0   .     S
V75     V77    10.0   .     S
V75     V73    10.0   1_556     S
V75     V84    10.0   .     S
V76     V78    10.0   1_554     S
V76     V77    10.0   .     S
V76     V80    10.0   .     S
V76     V88    10.001   .     S
V77     V78    10.0   .     S
V77     V81    10.0   .     S
V77     V89    10.001   .     S
V78     V73    10.0   1_556     S
V78     V76    10.0   1_556     S
V78     V79    10.0   1_556     S
V78     V90    10.001   .     S
V79     V78    10.0   1_554     S
V79     V82    10.0   .     S
V79     V84    10.0   1_554     S
V79     V80    10.0   .     S
V79     V81    10.0   1_554     S
V80     V83    10.0   .     S
V80     V82    10.0   .     S
V80     V81    10.0   .     S
V81     V84    10.0   .     S
V81     V83    10.0   .     S
V81     V79    10.0   1_556     S
V82     V84    10.0   1_554     S
V82     V83    10.0   .     S
V83     V84    10.0   .     S
V84     V7    10.001   1_556     S
V84     V79    10.0   1_556     S
V84     V82    10.0   1_556     S
V85     V96    10.0   1_554     S
V85     V88    10.0   .     S
V85     V86    10.0   .     S
V85     V87    10.0   1_554     S
V85     V90    10.0   1_554     S
V85     V58    10.001   1_545     S
V86     V94    10.0   .     S
V86     V89    10.0   .     S
V86     V87    10.0   .     S
V86     V88    10.0   .     S
V86     V59    10.001   1_545     S
V87     V95    10.0   .     S
V87     V90    10.0   .     S
V87     V85    10.0   1_556     S
V87     V89    10.0   .     S
V87     V60    10.001   1_545     S
V88     V90    10.0   1_554     S
V88     V89    10.0   .     S
V88     V91    10.0   .     S
V89     V90    10.0   .     S
V89     V92    10.0   .     S
V90     V85    10.0   1_556     S
V90     V88    10.0   1_556     S
V90     V93    10.0   .     S
V91     V96    10.0   1_554     S
V91     V94    10.0   .     S
V91     V92    10.0   .     S
V91     V93    10.0   1_554     S
V91     V45    10.001   1_554     S
V92     V94    10.0   .     S
V92     V95    10.0   .     S
V92     V93    10.0   .     S
V93     V95    10.0   .     S
V93     V96    10.0   .     S
V93     V91    10.0   1_556     S
V94     V96    10.0   1_554     S
V94     V95    10.0   .     S
V95     V96    10.0   .     S
V96     V85    10.0   1_556     S
V96     V91    10.0   1_556     S
V96     V94    10.0   1_556     S
V97     V101    10.0   .     S
V97     V100    10.0   .     S
V97     V99    10.0   1_554     S
V97     V98    10.0   .     S
V97     V104    10.0   .     S
V98     V102    10.0   .     S
V98     V101    10.0   .     S
V98     V99    10.0   .     S
V98     V105    10.0   .     S
V99     V100    10.0   1_556     S
V99     V102    10.0   .     S
V99     V97    10.0   1_556     S
V99     V103    10.0   1_556     S
V100     V99    10.0   1_554     S
V100     V101    10.0   .     S
V100     V102    10.0   1_554     S
V100     V106    10.0   .     S
V100     V3    10.001   1_554     S
V101     V102    10.0   .     S
V101     V107    10.0   .     S
V102     V100    10.0   1_556     S
V102     V108    10.0   .     S
V103     V99    10.0   1_554     S
V103     V106    10.0   .     S
V103     V104    10.0   .     S
V103     V105    10.0   1_554     S
V103     V108    10.0   1_554     S
V104     V107    10.0   .     S
V104     V105    10.0   .     S
V104     V106    10.0   .     S
V105     V108    10.0   .     S
V105     V103    10.0   1_556     S
V105     V107    10.0   .     S
V106     V108    10.0   1_554     S
V106     V107    10.0   .     S
V106     V55    10.001   1_655     S
V107     V108    10.0   .     S
V107     V56    10.001   1_655     S
V108     V103    10.0   1_556     S
V108     V106    10.0   1_556     S
V108     V57    10.001   1_655     S
