data_wmt
_audit_creation_date              2019-12-31
_audit_creation_method            'Pymatgen'
_symmetry_space_group_name_H-M    'P1'
_symmetry_Int_Tables_number       1
loop_
_symmetry_equiv_pos_as_xyz
  x,y,z
_cell_length_a                    67.126
_cell_length_b                    67.126
_cell_length_c                    28.2838
_cell_angle_alpha                 90.0
_cell_angle_beta                 90.0
_cell_angle_gamma                 120.0
loop_
_atom_site_label
_atom_site_type_symbol
_atom_site_fract_x
_atom_site_fract_y
_atom_site_fract_z
V1     V     0.0608   0.4777   0.0
V2     V     0.0608   0.4777   0.5
V3     V     0.1444   0.3942   0.4167
V4     V     0.1444   0.3942   0.9167
V5     V     0.0608   0.5831   0.25
V6     V     0.0608   0.5831   0.75
V7     V     0.1444   0.7503   0.1667
V8     V     0.1444   0.7503   0.6667
V9     V     0.6058   0.7503   0.4167
V10     V     0.6058   0.7503   0.9167
V11     V     0.5223   0.5831   0.0
V12     V     0.5223   0.5831   0.5
V13     V     0.5223   0.9392   0.25
V14     V     0.5223   0.9392   0.75
V15     V     0.6058   0.8556   0.1667
V16     V     0.6058   0.8556   0.6667
V17     V     0.4169   0.9392   0.0
V18     V     0.4169   0.9392   0.5
V19     V     0.2497   0.8556   0.4167
V20     V     0.2497   0.8556   0.9167
V21     V     0.2497   0.3942   0.1667
V22     V     0.2497   0.3942   0.6667
V23     V     0.4169   0.4777   0.25
V24     V     0.4169   0.4777   0.75
V25     V     0.9164   0.1889   0.0833
V26     V     0.9164   0.1889   0.5833
V27     V     0.0836   0.2725   0.1667
V28     V     0.0836   0.2725   0.6667
V29     V     0.1889   0.2725   0.4167
V30     V     0.1889   0.2725   0.9167
V31     V     0.2725   0.1889   0.3333
V32     V     0.2725   0.1889   0.8333
V33     V     0.9164   0.7275   0.3333
V34     V     0.9164   0.7275   0.8333
V35     V     0.0836   0.8111   0.4167
V36     V     0.0836   0.8111   0.9167
V37     V     0.2725   0.0836   0.0833
V38     V     0.2725   0.0836   0.5833
V39     V     0.1889   0.9164   0.1667
V40     V     0.1889   0.9164   0.6667
V41     V     0.8111   0.7275   0.0833
V42     V     0.8111   0.7275   0.5833
V43     V     0.7275   0.8111   0.1667
V44     V     0.7275   0.8111   0.6667
V45     V     0.8111   0.0836   0.3333
V46     V     0.8111   0.0836   0.8333
V47     V     0.7275   0.9164   0.4167
V48     V     0.7275   0.9164   0.9167
V49     V     0.4777   0.0608   0.25
V50     V     0.4777   0.0608   0.75
V51     V     0.3942   0.1444   0.3333
V52     V     0.3942   0.1444   0.8333
V53     V     0.4777   0.4169   0.0
V54     V     0.4777   0.4169   0.5
V55     V     0.3942   0.2497   0.0833
V56     V     0.3942   0.2497   0.5833
V57     V     0.5831   0.5223   0.25
V58     V     0.5831   0.5223   0.75
V59     V     0.7503   0.6058   0.3333
V60     V     0.7503   0.6058   0.8333
V61     V     0.8556   0.6058   0.0833
V62     V     0.8556   0.6058   0.5833
V63     V     0.9392   0.5223   0.0
V64     V     0.9392   0.5223   0.5
V65     V     0.8556   0.2497   0.3333
V66     V     0.8556   0.2497   0.8333
V67     V     0.9392   0.4169   0.25
V68     V     0.9392   0.4169   0.75
V69     V     0.5831   0.0608   0.0
V70     V     0.5831   0.0608   0.5
V71     V     0.7503   0.1444   0.0833
V72     V     0.7503   0.1444   0.5833
loop_
_geom_bond_atom_site_label_1
_geom_bond_atom_site_label_2
_geom_bond_distance
_geom_bond_site_symmetry_2
_ccdc_geom_bond_type
V1     V68    10.0   1_454     S
V1     V63    10.0   1_455     S
V1     V67    10.0   1_455     S
V1     V4    10.0   1_554     S
V1     V6    10.0   1_554     S
V1     V5    10.0   .     S
V2     V67    10.0   1_455     S
V2     V64    10.0   1_455     S
V2     V68    10.0   1_455     S
V2     V3    10.0   .     S
V2     V5    10.0   .     S
V2     V6    10.0   .     S
V3     V29    10.0   .     S
V3     V28    10.0   .     S
V3     V27    10.0   .     S
V3     V22    10.0   .     S
V3     V21    10.0   .     S
V4     V30    10.0   .     S
V4     V27    10.0   1_556     S
V4     V28    10.0   .     S
V4     V1    10.0   1_556     S
V4     V21    10.0   1_556     S
V4     V22    10.0   .     S
V5     V67    10.0   1_455     S
V5     V63    10.0   1_455     S
V5     V64    10.0   1_455     S
V5     V7    10.0   .     S
V6     V68    10.0   1_455     S
V6     V64    10.0   1_455     S
V6     V63    10.0   1_456     S
V6     V8    10.0   .     S
V6     V1    10.0   1_556     S
V7     V20    10.0   1_554     S
V7     V19    10.0   .     S
V7     V36    10.0   1_554     S
V7     V39    10.0   .     S
V7     V35    10.0   .     S
V8     V19    10.0   .     S
V8     V20    10.0   .     S
V8     V35    10.0   .     S
V8     V40    10.0   .     S
V8     V36    10.0   .     S
V9     V44    10.0   .     S
V9     V47    10.0   .     S
V9     V43    10.0   .     S
V9     V12    10.0   .     S
V9     V16    10.0   .     S
V9     V15    10.0   .     S
V10     V43    10.0   1_556     S
V10     V48    10.0   .     S
V10     V44    10.0   .     S
V10     V11    10.0   1_556     S
V10     V15    10.0   1_556     S
V10     V16    10.0   .     S
V11     V53    10.0   .     S
V11     V58    10.0   1_554     S
V11     V57    10.0   .     S
V11     V10    10.0   1_554     S
V11     V23    10.0   .     S
V11     V24    10.0   1_554     S
V12     V54    10.0   .     S
V12     V57    10.0   .     S
V12     V58    10.0   .     S
V12     V24    10.0   .     S
V12     V23    10.0   .     S
V13     V69    10.0   1_565     S
V13     V70    10.0   1_565     S
V13     V49    10.0   1_565     S
V13     V15    10.0   .     S
V13     V18    10.0   .     S
V13     V17    10.0   .     S
V14     V70    10.0   1_565     S
V14     V69    10.0   1_566     S
V14     V50    10.0   1_565     S
V14     V16    10.0   .     S
V14     V17    10.0   1_556     S
V14     V18    10.0   .     S
V15     V43    10.0   .     S
V15     V48    10.0   1_554     S
V15     V47    10.0   .     S
V15     V10    10.0   1_554     S
V16     V44    10.0   .     S
V16     V47    10.0   .     S
V16     V48    10.0   .     S
V17     V69    10.0   1_565     S
V17     V50    10.0   1_564     S
V17     V49    10.0   1_565     S
V17     V14    10.0   1_554     S
V17     V20    10.0   1_554     S
V18     V70    10.0   1_565     S
V18     V49    10.0   1_565     S
V18     V50    10.0   1_565     S
V18     V19    10.0   .     S
V19     V35    10.0   .     S
V19     V40    10.0   .     S
V19     V39    10.0   .     S
V20     V17    10.0   1_556     S
V20     V7    10.0   1_556     S
V20     V36    10.0   .     S
V20     V39    10.0   1_556     S
V20     V40    10.0   .     S
V21     V29    10.0   .     S
V21     V27    10.0   .     S
V21     V30    10.0   1_554     S
V21     V4    10.0   1_554     S
V21     V23    10.0   .     S
V22     V30    10.0   .     S
V22     V28    10.0   .     S
V22     V29    10.0   .     S
V22     V24    10.0   .     S
V23     V53    10.0   .     S
V23     V54    10.0   .     S
V23     V57    10.0   .     S
V24     V54    10.0   .     S
V24     V53    10.0   1_556     S
V24     V58    10.0   .     S
V24     V11    10.0   1_556     S
V25     V27    10.0   1_655     S
V25     V45    10.0   .     S
V25     V46    10.0   1_554     S
V25     V71    10.0   .     S
V25     V65    10.0   .     S
V25     V66    10.0   1_554     S
V26     V28    10.0   1_655     S
V26     V46    10.0   .     S
V26     V45    10.0   .     S
V26     V72    10.0   .     S
V26     V66    10.0   .     S
V26     V65    10.0   .     S
V27     V4    10.0   1_554     S
V27     V25    10.0   1_455     S
V27     V29    10.0   .     S
V27     V30    10.0   1_554     S
V28     V26    10.0   1_455     S
V28     V30    10.0   .     S
V28     V29    10.0   .     S
V29     V31    10.0   .     S
V30     V21    10.0   1_556     S
V30     V32    10.0   .     S
V30     V27    10.0   1_556     S
V31     V55    10.0   .     S
V31     V51    10.0   .     S
V31     V56    10.0   .     S
V31     V37    10.0   .     S
V31     V38    10.0   .     S
V32     V56    10.0   .     S
V32     V52    10.0   .     S
V32     V55    10.0   1_556     S
V32     V38    10.0   .     S
V32     V37    10.0   1_556     S
V33     V59    10.0   .     S
V33     V61    10.0   .     S
V33     V62    10.0   .     S
V33     V35    10.0   1_655     S
V33     V41    10.0   .     S
V33     V42    10.0   .     S
V34     V60    10.0   .     S
V34     V62    10.0   .     S
V34     V61    10.0   1_556     S
V34     V36    10.0   1_655     S
V34     V42    10.0   .     S
V34     V41    10.0   1_556     S
V35     V33    10.0   1_455     S
V35     V40    10.0   .     S
V35     V39    10.0   .     S
V36     V7    10.0   1_556     S
V36     V34    10.0   1_455     S
V36     V39    10.0   1_556     S
V36     V40    10.0   .     S
V37     V55    10.0   .     S
V37     V51    10.0   .     S
V37     V52    10.0   1_554     S
V37     V39    10.0   1_545     S
V37     V32    10.0   1_554     S
V38     V56    10.0   .     S
V38     V52    10.0   .     S
V38     V51    10.0   .     S
V38     V40    10.0   1_545     S
V39     V20    10.0   1_554     S
V39     V36    10.0   1_554     S
V39     V37    10.0   1_565     S
V40     V38    10.0   1_565     S
V41     V59    10.0   .     S
V41     V61    10.0   .     S
V41     V60    10.0   1_554     S
V41     V43    10.0   .     S
V41     V34    10.0   1_554     S
V42     V60    10.0   .     S
V42     V62    10.0   .     S
V42     V59    10.0   .     S
V42     V44    10.0   .     S
V43     V10    10.0   1_554     S
V43     V47    10.0   .     S
V43     V48    10.0   1_554     S
V44     V48    10.0   .     S
V44     V47    10.0   .     S
V45     V47    10.0   1_545     S
V45     V71    10.0   .     S
V45     V65    10.0   .     S
V45     V72    10.0   .     S
V46     V48    10.0   1_545     S
V46     V25    10.0   1_556     S
V46     V72    10.0   .     S
V46     V66    10.0   .     S
V46     V71    10.0   1_556     S
V47     V45    10.0   1_565     S
V48     V15    10.0   1_556     S
V48     V43    10.0   1_556     S
V48     V46    10.0   1_565     S
V49     V13    10.0   1_545     S
V49     V18    10.0   1_545     S
V49     V17    10.0   1_545     S
V49     V51    10.0   .     S
V49     V70    10.0   .     S
V49     V69    10.0   .     S
V50     V14    10.0   1_545     S
V50     V17    10.0   1_546     S
V50     V18    10.0   1_545     S
V50     V52    10.0   .     S
V50     V69    10.0   1_556     S
V50     V70    10.0   .     S
V51     V55    10.0   .     S
V51     V56    10.0   .     S
V52     V37    10.0   1_556     S
V52     V56    10.0   .     S
V52     V55    10.0   1_556     S
V53     V24    10.0   1_554     S
V53     V55    10.0   .     S
V53     V58    10.0   1_554     S
V53     V57    10.0   .     S
V54     V56    10.0   .     S
V54     V57    10.0   .     S
V54     V58    10.0   .     S
V55     V32    10.0   1_554     S
V55     V52    10.0   1_554     S
V57     V59    10.0   .     S
V58     V11    10.0   1_556     S
V58     V53    10.0   1_556     S
V58     V60    10.0   .     S
V59     V61    10.0   .     S
V59     V62    10.0   .     S
V60     V41    10.0   1_556     S
V60     V62    10.0   .     S
V60     V61    10.0   1_556     S
V61     V34    10.0   1_554     S
V61     V63    10.0   .     S
V61     V60    10.0   1_554     S
V62     V64    10.0   .     S
V63     V1    10.0   1_655     S
V63     V5    10.0   1_655     S
V63     V6    10.0   1_654     S
V63     V67    10.0   .     S
V63     V68    10.0   1_554     S
V64     V2    10.0   1_655     S
V64     V6    10.0   1_655     S
V64     V5    10.0   1_655     S
V64     V68    10.0   .     S
V64     V67    10.0   .     S
V65     V67    10.0   .     S
V65     V71    10.0   .     S
V65     V72    10.0   .     S
V66     V25    10.0   1_556     S
V66     V68    10.0   .     S
V66     V72    10.0   .     S
V66     V71    10.0   1_556     S
V67     V2    10.0   1_655     S
V67     V1    10.0   1_655     S
V67     V5    10.0   1_655     S
V68     V1    10.0   1_656     S
V68     V2    10.0   1_655     S
V68     V6    10.0   1_655     S
V68     V63    10.0   1_556     S
V69     V13    10.0   1_545     S
V69     V17    10.0   1_545     S
V69     V14    10.0   1_544     S
V69     V50    10.0   1_554     S
V69     V71    10.0   .     S
V70     V14    10.0   1_545     S
V70     V18    10.0   1_545     S
V70     V13    10.0   1_545     S
V70     V72    10.0   .     S
V71     V46    10.0   1_554     S
V71     V66    10.0   1_554     S
