data_wmu
_audit_creation_date              2019-12-31
_audit_creation_method            'Pymatgen'
_symmetry_space_group_name_H-M    'P1'
_symmetry_Int_Tables_number       1
loop_
_symmetry_equiv_pos_as_xyz
  x,y,z
_cell_length_a                    49.2404
_cell_length_b                    49.2404
_cell_length_c                    36.5502
_cell_angle_alpha                 90.0
_cell_angle_beta                 90.0
_cell_angle_gamma                 120.0
loop_
_atom_site_label
_atom_site_type_symbol
_atom_site_fract_x
_atom_site_fract_y
_atom_site_fract_z
V1     V     0.2276   0.0726   0.2675
V2     V     0.2276   0.0726   0.7675
V3     V     0.1551   0.9274   0.4825
V4     V     0.1551   0.9274   0.9825
V5     V     0.4059   0.8943   0.3158
V6     V     0.4059   0.8943   0.8158
V7     V     0.2608   0.8217   0.1009
V8     V     0.2608   0.8217   0.6009
V9     V     0.5116   0.1057   0.4342
V10     V     0.5116   0.1057   0.9342
V11     V     0.439   0.1783   0.1491
V12     V     0.439   0.1783   0.6491
V13     V     0.439   0.2608   0.3991
V14     V     0.439   0.2608   0.8991
V15     V     0.5116   0.4059   0.1842
V16     V     0.5116   0.4059   0.6842
V17     V     0.4059   0.5116   0.0658
V18     V     0.4059   0.5116   0.5658
V19     V     0.2608   0.439   0.3509
V20     V     0.2608   0.439   0.8509
V21     V     0.1551   0.2276   0.2325
V22     V     0.1551   0.2276   0.7325
V23     V     0.2276   0.1551   0.0175
V24     V     0.2276   0.1551   0.5175
V25     V     0.8217   0.2608   0.1491
V26     V     0.8217   0.2608   0.6491
V27     V     0.8943   0.4059   0.4342
V28     V     0.8943   0.4059   0.9342
V29     V     0.9274   0.1551   0.2675
V30     V     0.9274   0.1551   0.7675
V31     V     0.0726   0.2276   0.4825
V32     V     0.0726   0.2276   0.9825
V33     V     0.1057   0.5116   0.3158
V34     V     0.1057   0.5116   0.8158
V35     V     0.1783   0.439   0.1009
V36     V     0.1783   0.439   0.6009
V37     V     0.8943   0.4884   0.1842
V38     V     0.8943   0.4884   0.6842
V39     V     0.8217   0.561   0.3991
V40     V     0.8217   0.561   0.8991
V41     V     0.9274   0.7724   0.0175
V42     V     0.9274   0.7724   0.5175
V43     V     0.0726   0.8449   0.2325
V44     V     0.0726   0.8449   0.7325
V45     V     0.1057   0.5941   0.0658
V46     V     0.1057   0.5941   0.5658
V47     V     0.1783   0.7392   0.3509
V48     V     0.1783   0.7392   0.8509
V49     V     0.8449   0.0726   0.0175
V50     V     0.8449   0.0726   0.5175
V51     V     0.7724   0.9274   0.2325
V52     V     0.7724   0.9274   0.7325
V53     V     0.4884   0.8943   0.0658
V54     V     0.4884   0.8943   0.5658
V55     V     0.561   0.8217   0.3509
V56     V     0.561   0.8217   0.8509
V57     V     0.5941   0.1057   0.1842
V58     V     0.5941   0.1057   0.6842
V59     V     0.7392   0.1783   0.3991
V60     V     0.7392   0.1783   0.8991
V61     V     0.8449   0.7724   0.2675
V62     V     0.8449   0.7724   0.7675
V63     V     0.7724   0.8449   0.4825
V64     V     0.7724   0.8449   0.9825
V65     V     0.4884   0.5941   0.3158
V66     V     0.4884   0.5941   0.8158
V67     V     0.561   0.7392   0.1009
V68     V     0.561   0.7392   0.6009
V69     V     0.7392   0.561   0.1491
V70     V     0.7392   0.561   0.6491
V71     V     0.5941   0.4884   0.4342
V72     V     0.5941   0.4884   0.9342
loop_
_geom_bond_atom_site_label_1
_geom_bond_atom_site_label_2
_geom_bond_distance
_geom_bond_site_symmetry_2
_ccdc_geom_bond_type
V1     V43    10.0   1_545     S
V1     V3    10.0   1_545     S
V1     V23    10.0   .     S
V1     V11    10.0   .     S
V1     V21    10.0   .     S
V1     V24    10.0   .     S
V2     V44    10.0   1_545     S
V2     V4    10.0   1_545     S
V2     V24    10.0   .     S
V2     V12    10.0   .     S
V2     V22    10.0   .     S
V2     V23    10.0   1_556     S
V3     V24    10.0   1_565     S
V3     V44    10.0   .     S
V3     V1    10.0   1_565     S
V3     V8    10.0   .     S
V3     V42    10.0   1_455     S
V3     V43    10.0   .     S
V4     V23    10.0   1_566     S
V4     V43    10.0   1_556     S
V4     V2    10.0   1_565     S
V4     V7    10.0   1_556     S
V4     V41    10.0   1_456     S
V4     V44    10.0   .     S
V5     V47    10.0   .     S
V5     V7    10.0   .     S
V5     V54    10.0   .     S
V5     V9    10.0   1_565     S
V5     V53    10.0   .     S
V5     V55    10.0   .     S
V6     V48    10.0   .     S
V6     V8    10.0   .     S
V6     V53    10.0   1_556     S
V6     V10    10.0   1_565     S
V6     V54    10.0   .     S
V6     V56    10.0   .     S
V7     V4    10.0   1_554     S
V7     V53    10.0   .     S
V7     V48    10.0   1_554     S
V7     V45    10.0   .     S
V7     V47    10.0   .     S
V8     V54    10.0   .     S
V8     V47    10.0   .     S
V8     V46    10.0   .     S
V8     V48    10.0   .     S
V9     V5    10.0   1_545     S
V9     V13    10.0   .     S
V9     V12    10.0   .     S
V9     V57    10.0   .     S
V9     V58    10.0   .     S
V9     V59    10.0   .     S
V10     V6    10.0   1_545     S
V10     V14    10.0   .     S
V10     V11    10.0   1_556     S
V10     V58    10.0   .     S
V10     V57    10.0   1_556     S
V10     V60    10.0   .     S
V11     V57    10.0   .     S
V11     V10    10.0   1_554     S
V11     V13    10.0   .     S
V11     V15    10.0   .     S
V11     V14    10.0   1_554     S
V12     V58    10.0   .     S
V12     V14    10.0   .     S
V12     V16    10.0   .     S
V12     V13    10.0   .     S
V13     V24    10.0   .     S
V13     V71    10.0   .     S
V13     V15    10.0   .     S
V14     V23    10.0   1_556     S
V14     V72    10.0   .     S
V14     V16    10.0   .     S
V14     V11    10.0   1_556     S
V15     V72    10.0   1_554     S
V15     V17    10.0   .     S
V15     V69    10.0   .     S
V15     V71    10.0   .     S
V16     V71    10.0   .     S
V16     V18    10.0   .     S
V16     V70    10.0   .     S
V16     V72    10.0   .     S
V17     V35    10.0   .     S
V17     V65    10.0   .     S
V17     V20    10.0   1_554     S
V17     V67    10.0   .     S
V17     V66    10.0   1_554     S
V18     V36    10.0   .     S
V18     V66    10.0   .     S
V18     V19    10.0   .     S
V18     V68    10.0   .     S
V18     V65    10.0   .     S
V19     V65    10.0   .     S
V19     V35    10.0   .     S
V19     V21    10.0   .     S
V19     V33    10.0   .     S
V19     V36    10.0   .     S
V20     V66    10.0   .     S
V20     V17    10.0   1_556     S
V20     V36    10.0   .     S
V20     V22    10.0   .     S
V20     V34    10.0   .     S
V20     V35    10.0   1_556     S
V21     V23    10.0   .     S
V21     V31    10.0   .     S
V21     V29    10.0   1_455     S
V21     V32    10.0   1_554     S
V22     V24    10.0   .     S
V22     V32    10.0   .     S
V22     V30    10.0   1_455     S
V22     V31    10.0   .     S
V23     V4    10.0   1_544     S
V23     V14    10.0   1_554     S
V23     V32    10.0   1_554     S
V23     V2    10.0   1_554     S
V24     V3    10.0   1_545     S
V24     V31    10.0   .     S
V25     V37    10.0   .     S
V25     V59    10.0   .     S
V25     V28    10.0   1_554     S
V25     V29    10.0   .     S
V25     V57    10.0   .     S
V25     V60    10.0   1_554     S
V26     V38    10.0   .     S
V26     V60    10.0   .     S
V26     V27    10.0   .     S
V26     V30    10.0   .     S
V26     V58    10.0   .     S
V26     V59    10.0   .     S
V27     V33    10.0   1_655     S
V27     V59    10.0   .     S
V27     V37    10.0   .     S
V27     V38    10.0   .     S
V27     V39    10.0   .     S
V28     V34    10.0   1_655     S
V28     V60    10.0   .     S
V28     V25    10.0   1_556     S
V28     V38    10.0   .     S
V28     V37    10.0   1_556     S
V28     V40    10.0   .     S
V29     V21    10.0   1_655     S
V29     V31    10.0   1_655     S
V29     V49    10.0   .     S
V29     V50    10.0   .     S
V29     V51    10.0   1_545     S
V30     V22    10.0   1_655     S
V30     V32    10.0   1_655     S
V30     V50    10.0   .     S
V30     V49    10.0   1_556     S
V30     V52    10.0   1_545     S
V31     V50    10.0   1_455     S
V31     V29    10.0   1_455     S
V31     V36    10.0   .     S
V32     V23    10.0   1_556     S
V32     V49    10.0   1_456     S
V32     V30    10.0   1_455     S
V32     V21    10.0   1_556     S
V32     V35    10.0   1_556     S
V33     V27    10.0   1_455     S
V33     V35    10.0   .     S
V33     V46    10.0   .     S
V33     V45    10.0   .     S
V33     V47    10.0   .     S
V34     V28    10.0   1_455     S
V34     V36    10.0   .     S
V34     V45    10.0   1_556     S
V34     V46    10.0   .     S
V34     V48    10.0   .     S
V35     V32    10.0   1_554     S
V35     V45    10.0   .     S
V35     V20    10.0   1_554     S
V36     V46    10.0   .     S
V37     V69    10.0   .     S
V37     V28    10.0   1_554     S
V37     V39    10.0   .     S
V37     V45    10.0   1_655     S
V38     V70    10.0   .     S
V38     V40    10.0   .     S
V38     V46    10.0   1_655     S
V39     V42    10.0   .     S
V39     V70    10.0   .     S
V39     V69    10.0   .     S
V39     V71    10.0   .     S
V40     V41    10.0   1_556     S
V40     V69    10.0   1_556     S
V40     V70    10.0   .     S
V40     V72    10.0   .     S
V41     V40    10.0   1_554     S
V41     V4    10.0   1_654     S
V41     V62    10.0   1_554     S
V41     V43    10.0   1_655     S
V41     V64    10.0   1_554     S
V41     V61    10.0   .     S
V42     V3    10.0   1_655     S
V42     V61    10.0   .     S
V42     V44    10.0   1_655     S
V42     V63    10.0   .     S
V42     V62    10.0   .     S
V43     V1    10.0   1_565     S
V43     V4    10.0   1_554     S
V43     V47    10.0   .     S
V43     V61    10.0   1_455     S
V43     V41    10.0   1_455     S
V44     V2    10.0   1_565     S
V44     V48    10.0   .     S
V44     V62    10.0   1_455     S
V44     V42    10.0   1_455     S
V45     V34    10.0   1_554     S
V45     V37    10.0   1_455     S
V45     V48    10.0   1_554     S
V46     V38    10.0   1_455     S
V46     V47    10.0   .     S
V48     V7    10.0   1_556     S
V48     V45    10.0   1_556     S
V49     V32    10.0   1_654     S
V49     V64    10.0   1_544     S
V49     V30    10.0   1_554     S
V49     V51    10.0   1_545     S
V49     V60    10.0   1_554     S
V50     V31    10.0   1_655     S
V50     V63    10.0   1_545     S
V50     V52    10.0   1_545     S
V50     V59    10.0   .     S
V51     V55    10.0   .     S
V51     V29    10.0   1_565     S
V51     V63    10.0   .     S
V51     V49    10.0   1_565     S
V51     V61    10.0   .     S
V51     V64    10.0   1_554     S
V52     V56    10.0   .     S
V52     V30    10.0   1_565     S
V52     V64    10.0   .     S
V52     V50    10.0   1_565     S
V52     V62    10.0   .     S
V52     V63    10.0   .     S
V53     V6    10.0   1_554     S
V53     V67    10.0   .     S
V53     V56    10.0   1_554     S
V53     V57    10.0   1_565     S
V54     V68    10.0   .     S
V54     V55    10.0   .     S
V54     V58    10.0   1_565     S
V55     V67    10.0   .     S
V55     V65    10.0   .     S
V55     V68    10.0   .     S
V56     V53    10.0   1_556     S
V56     V68    10.0   .     S
V56     V66    10.0   .     S
V56     V67    10.0   1_556     S
V57     V53    10.0   1_545     S
V57     V10    10.0   1_554     S
V57     V59    10.0   .     S
V58     V54    10.0   1_545     S
V58     V60    10.0   .     S
V60     V49    10.0   1_556     S
V60     V25    10.0   1_556     S
V61     V43    10.0   1_655     S
V61     V63    10.0   .     S
V61     V69    10.0   .     S
V62     V41    10.0   1_556     S
V62     V44    10.0   1_655     S
V62     V64    10.0   .     S
V62     V70    10.0   .     S
V63     V50    10.0   1_565     S
V63     V68    10.0   .     S
V64     V49    10.0   1_566     S
V64     V67    10.0   1_556     S
V64     V41    10.0   1_556     S
V64     V51    10.0   1_556     S
V65     V67    10.0   .     S
V65     V71    10.0   .     S
V66     V68    10.0   .     S
V66     V17    10.0   1_556     S
V66     V72    10.0   .     S
V67     V64    10.0   1_554     S
V67     V56    10.0   1_554     S
V69     V40    10.0   1_554     S
V69     V72    10.0   1_554     S
V70     V71    10.0   .     S
V72     V15    10.0   1_556     S
V72     V69    10.0   1_556     S
