data_wmv
_audit_creation_date              2019-12-31
_audit_creation_method            'Pymatgen'
_symmetry_space_group_name_H-M    'P1'
_symmetry_Int_Tables_number       1
loop_
_symmetry_equiv_pos_as_xyz
  x,y,z
_cell_length_a                    50.2418
_cell_length_b                    50.2418
_cell_length_c                    38.6678
_cell_angle_alpha                 90.0
_cell_angle_beta                 90.0
_cell_angle_gamma                 120.0
loop_
_atom_site_label
_atom_site_type_symbol
_atom_site_fract_x
_atom_site_fract_y
_atom_site_fract_z
V1     V     0.1347   0.2185   0.2865
V2     V     0.1347   0.2185   0.7865
V3     V     0.2496   0.4482   0.2968
V4     V     0.2496   0.4482   0.7968
V5     V     0.5319   0.4171   0.1302
V6     V     0.5319   0.4171   0.6302
V7     V     0.4171   0.5319   0.1198
V8     V     0.4171   0.5319   0.6198
V9     V     0.2185   0.1347   0.4635
V10     V     0.2185   0.1347   0.9635
V11     V     0.4482   0.2496   0.4532
V12     V     0.4482   0.2496   0.9532
V13     V     0.5319   0.1148   0.3802
V14     V     0.5319   0.1148   0.8802
V15     V     0.4171   0.8852   0.3698
V16     V     0.4171   0.8852   0.8698
V17     V     0.2185   0.0838   0.2135
V18     V     0.2185   0.0838   0.7135
V19     V     0.4482   0.1986   0.2032
V20     V     0.4482   0.1986   0.7032
V21     V     0.1347   0.9162   0.0365
V22     V     0.1347   0.9162   0.5365
V23     V     0.2496   0.8014   0.0468
V24     V     0.2496   0.8014   0.5468
V25     V     0.1986   0.7504   0.2968
V26     V     0.1986   0.7504   0.7968
V27     V     0.0838   0.8653   0.2865
V28     V     0.0838   0.8653   0.7865
V29     V     0.8852   0.4681   0.1302
V30     V     0.8852   0.4681   0.6302
V31     V     0.1148   0.5829   0.1198
V32     V     0.1148   0.5829   0.6198
V33     V     0.8014   0.5518   0.4532
V34     V     0.8014   0.5518   0.9532
V35     V     0.9162   0.7815   0.4635
V36     V     0.9162   0.7815   0.9635
V37     V     0.8653   0.7815   0.2135
V38     V     0.8653   0.7815   0.7135
V39     V     0.7504   0.5518   0.2032
V40     V     0.7504   0.5518   0.7032
V41     V     0.5829   0.4681   0.3802
V42     V     0.5829   0.4681   0.8802
V43     V     0.4681   0.5829   0.3698
V44     V     0.4681   0.5829   0.8698
V45     V     0.5518   0.7504   0.0468
V46     V     0.5518   0.7504   0.5468
V47     V     0.7815   0.8653   0.0365
V48     V     0.7815   0.8653   0.5365
V49     V     0.9162   0.1347   0.2135
V50     V     0.9162   0.1347   0.7135
V51     V     0.8014   0.2496   0.2032
V52     V     0.8014   0.2496   0.7032
V53     V     0.0838   0.2185   0.0365
V54     V     0.0838   0.2185   0.5365
V55     V     0.1986   0.4482   0.0468
V56     V     0.1986   0.4482   0.5468
V57     V     0.8852   0.4171   0.3802
V58     V     0.8852   0.4171   0.8802
V59     V     0.1148   0.5319   0.3698
V60     V     0.1148   0.5319   0.8698
V61     V     0.7815   0.9162   0.2865
V62     V     0.7815   0.9162   0.7865
V63     V     0.5518   0.8014   0.2968
V64     V     0.5518   0.8014   0.7968
V65     V     0.5829   0.1148   0.1302
V66     V     0.5829   0.1148   0.6302
V67     V     0.4681   0.8852   0.1198
V68     V     0.4681   0.8852   0.6198
V69     V     0.8653   0.0838   0.4635
V70     V     0.8653   0.0838   0.9635
V71     V     0.7504   0.1986   0.4532
V72     V     0.7504   0.1986   0.9532
loop_
_geom_bond_atom_site_label_1
_geom_bond_atom_site_label_2
_geom_bond_distance
_geom_bond_site_symmetry_2
_ccdc_geom_bond_type
V1     V54    10.0   .     S
V1     V9    10.0   .     S
V1     V17    10.0   .     S
V1     V3    10.0   .     S
V1     V53    10.0   .     S
V1     V49    10.0   1_455     S
V2     V53    10.0   1_556     S
V2     V10    10.0   .     S
V2     V18    10.0   .     S
V2     V4    10.0   .     S
V2     V54    10.0   .     S
V2     V50    10.0   1_455     S
V3     V43    10.0   .     S
V3     V7    10.0   .     S
V3     V55    10.0   .     S
V3     V56    10.0   .     S
V3     V59    10.0   .     S
V4     V44    10.0   .     S
V4     V8    10.0   .     S
V4     V56    10.0   .     S
V4     V55    10.0   1_556     S
V4     V60    10.0   .     S
V5     V19    10.0   .     S
V5     V7    10.0   .     S
V5     V12    10.0   1_554     S
V5     V42    10.0   1_554     S
V5     V41    10.0   .     S
V5     V39    10.0   .     S
V6     V20    10.0   .     S
V6     V8    10.0   .     S
V6     V11    10.0   .     S
V6     V41    10.0   .     S
V6     V42    10.0   .     S
V6     V40    10.0   .     S
V7     V43    10.0   .     S
V7     V55    10.0   .     S
V7     V44    10.0   1_554     S
V7     V45    10.0   .     S
V8     V44    10.0   .     S
V8     V56    10.0   .     S
V8     V43    10.0   .     S
V8     V46    10.0   .     S
V9     V17    10.0   .     S
V9     V54    10.0   .     S
V9     V11    10.0   .     S
V9     V18    10.0   .     S
V9     V22    10.0   1_545     S
V10     V18    10.0   .     S
V10     V53    10.0   1_556     S
V10     V12    10.0   .     S
V10     V17    10.0   1_556     S
V10     V21    10.0   1_546     S
V11     V20    10.0   .     S
V11     V41    10.0   .     S
V11     V19    10.0   .     S
V11     V13    10.0   .     S
V12     V19    10.0   1_556     S
V12     V5    10.0   1_556     S
V12     V42    10.0   .     S
V12     V20    10.0   .     S
V12     V14    10.0   .     S
V13     V19    10.0   .     S
V13     V65    10.0   .     S
V13     V15    10.0   1_545     S
V13     V66    10.0   .     S
V13     V71    10.0   .     S
V14     V20    10.0   .     S
V14     V66    10.0   .     S
V14     V16    10.0   1_545     S
V14     V65    10.0   1_556     S
V14     V72    10.0   .     S
V15     V13    10.0   1_565     S
V15     V25    10.0   .     S
V15     V24    10.0   .     S
V15     V68    10.0   .     S
V15     V63    10.0   .     S
V15     V67    10.0   .     S
V16     V14    10.0   1_565     S
V16     V26    10.0   .     S
V16     V23    10.0   1_556     S
V16     V67    10.0   1_556     S
V16     V64    10.0   .     S
V16     V68    10.0   .     S
V17     V27    10.0   1_545     S
V17     V19    10.0   .     S
V17     V10    10.0   1_554     S
V17     V21    10.0   1_545     S
V18     V28    10.0   1_545     S
V18     V20    10.0   .     S
V18     V22    10.0   1_545     S
V19     V12    10.0   1_554     S
V19     V65    10.0   .     S
V20     V66    10.0   .     S
V21     V17    10.0   1_565     S
V21     V27    10.0   .     S
V21     V10    10.0   1_564     S
V21     V23    10.0   .     S
V21     V28    10.0   1_554     S
V21     V36    10.0   1_454     S
V22     V18    10.0   1_565     S
V22     V28    10.0   .     S
V22     V9    10.0   1_565     S
V22     V24    10.0   .     S
V22     V27    10.0   .     S
V22     V35    10.0   1_455     S
V23     V26    10.0   1_554     S
V23     V16    10.0   1_554     S
V23     V67    10.0   .     S
V23     V25    10.0   .     S
V23     V31    10.0   .     S
V24     V25    10.0   .     S
V24     V68    10.0   .     S
V24     V26    10.0   .     S
V24     V32    10.0   .     S
V25     V31    10.0   .     S
V25     V59    10.0   .     S
V25     V27    10.0   .     S
V26     V23    10.0   1_556     S
V26     V32    10.0   .     S
V26     V60    10.0   .     S
V26     V28    10.0   .     S
V27     V17    10.0   1_565     S
V27     V37    10.0   1_455     S
V27     V35    10.0   1_455     S
V28     V18    10.0   1_565     S
V28     V38    10.0   1_455     S
V28     V21    10.0   1_556     S
V28     V36    10.0   1_455     S
V29     V39    10.0   .     S
V29     V31    10.0   1_655     S
V29     V58    10.0   1_554     S
V29     V34    10.0   1_554     S
V29     V51    10.0   .     S
V29     V57    10.0   .     S
V30     V40    10.0   .     S
V30     V32    10.0   1_655     S
V30     V57    10.0   .     S
V30     V33    10.0   .     S
V30     V52    10.0   .     S
V30     V58    10.0   .     S
V31     V59    10.0   .     S
V31     V29    10.0   1_455     S
V31     V55    10.0   .     S
V31     V60    10.0   1_554     S
V32     V60    10.0   .     S
V32     V30    10.0   1_455     S
V32     V56    10.0   .     S
V32     V59    10.0   .     S
V33     V40    10.0   .     S
V33     V57    10.0   .     S
V33     V35    10.0   .     S
V33     V39    10.0   .     S
V33     V41    10.0   .     S
V34     V29    10.0   1_556     S
V34     V39    10.0   1_556     S
V34     V58    10.0   .     S
V34     V36    10.0   .     S
V34     V40    10.0   .     S
V34     V42    10.0   .     S
V35     V27    10.0   1_655     S
V35     V37    10.0   .     S
V35     V22    10.0   1_655     S
V35     V38    10.0   .     S
V35     V48    10.0   .     S
V36     V28    10.0   1_655     S
V36     V38    10.0   .     S
V36     V21    10.0   1_656     S
V36     V37    10.0   1_556     S
V36     V47    10.0   1_556     S
V37     V27    10.0   1_655     S
V37     V61    10.0   .     S
V37     V39    10.0   .     S
V37     V47    10.0   .     S
V37     V36    10.0   1_554     S
V38     V28    10.0   1_655     S
V38     V62    10.0   .     S
V38     V40    10.0   .     S
V38     V48    10.0   .     S
V39     V34    10.0   1_554     S
V39     V41    10.0   .     S
V40     V42    10.0   .     S
V41     V43    10.0   .     S
V42     V5    10.0   1_556     S
V42     V44    10.0   .     S
V43     V63    10.0   .     S
V43     V46    10.0   .     S
V44     V64    10.0   .     S
V44     V7    10.0   1_556     S
V44     V45    10.0   1_556     S
V45     V44    10.0   1_554     S
V45     V64    10.0   1_554     S
V45     V47    10.0   .     S
V45     V63    10.0   .     S
V45     V67    10.0   .     S
V46     V63    10.0   .     S
V46     V48    10.0   .     S
V46     V64    10.0   .     S
V46     V68    10.0   .     S
V47     V61    10.0   .     S
V47     V36    10.0   1_554     S
V47     V62    10.0   1_554     S
V47     V70    10.0   1_564     S
V48     V62    10.0   .     S
V48     V61    10.0   .     S
V48     V69    10.0   1_565     S
V49     V53    10.0   1_655     S
V49     V70    10.0   1_554     S
V49     V1    10.0   1_655     S
V49     V51    10.0   .     S
V49     V61    10.0   1_545     S
V49     V69    10.0   .     S
V50     V54    10.0   1_655     S
V50     V69    10.0   .     S
V50     V2    10.0   1_655     S
V50     V52    10.0   .     S
V50     V62    10.0   1_545     S
V50     V70    10.0   .     S
V51     V71    10.0   .     S
V51     V57    10.0   .     S
V51     V65    10.0   .     S
V51     V72    10.0   1_554     S
V52     V72    10.0   .     S
V52     V58    10.0   .     S
V52     V66    10.0   .     S
V52     V71    10.0   .     S
V53     V2    10.0   1_554     S
V53     V10    10.0   1_554     S
V53     V49    10.0   1_455     S
V53     V70    10.0   1_454     S
V53     V55    10.0   .     S
V54     V50    10.0   1_455     S
V54     V69    10.0   1_455     S
V54     V56    10.0   .     S
V55     V4    10.0   1_554     S
V55     V60    10.0   1_554     S
V56     V59    10.0   .     S
V57     V71    10.0   .     S
V57     V59    10.0   1_655     S
V58     V29    10.0   1_556     S
V58     V72    10.0   .     S
V58     V60    10.0   1_655     S
V59     V57    10.0   1_455     S
V60     V55    10.0   1_556     S
V60     V31    10.0   1_556     S
V60     V58    10.0   1_455     S
V61     V49    10.0   1_565     S
V61     V63    10.0   .     S
V61     V69    10.0   1_565     S
V62     V50    10.0   1_565     S
V62     V64    10.0   .     S
V62     V70    10.0   1_565     S
V62     V47    10.0   1_556     S
V63     V67    10.0   .     S
V64     V45    10.0   1_556     S
V64     V68    10.0   .     S
V65     V67    10.0   1_545     S
V65     V14    10.0   1_554     S
V65     V72    10.0   1_554     S
V66     V68    10.0   1_545     S
V66     V71    10.0   .     S
V67     V16    10.0   1_554     S
V67     V65    10.0   1_565     S
V68     V66    10.0   1_565     S
V69     V54    10.0   1_655     S
V69     V61    10.0   1_545     S
V69     V48    10.0   1_545     S
V69     V71    10.0   .     S
V70     V49    10.0   1_556     S
V70     V53    10.0   1_656     S
V70     V62    10.0   1_545     S
V70     V47    10.0   1_546     S
V70     V72    10.0   .     S
V72     V65    10.0   1_556     S
V72     V51    10.0   1_556     S
