data_wmw
_audit_creation_date              2019-12-31
_audit_creation_method            'Pymatgen'
_symmetry_space_group_name_H-M    'P1'
_symmetry_Int_Tables_number       1
loop_
_symmetry_equiv_pos_as_xyz
  x,y,z
_cell_length_a                    48.4235
_cell_length_b                    48.4235
_cell_length_c                    39.4694
_cell_angle_alpha                 90.0
_cell_angle_beta                 90.0
_cell_angle_gamma                 120.0
loop_
_atom_site_label
_atom_site_type_symbol
_atom_site_fract_x
_atom_site_fract_y
_atom_site_fract_z
V1     V     0.8728   0.7791   0.2966
V2     V     0.8728   0.7791   0.7966
V3     V     0.1272   0.9063   0.4534
V4     V     0.1272   0.9063   0.9534
V5     V     0.7939   0.5542   0.37
V6     V     0.7939   0.5542   0.87
V7     V     0.5395   0.427   0.2133
V8     V     0.5395   0.427   0.7133
V9     V     0.7939   0.2397   0.12
V10     V     0.7939   0.2397   0.62
V11     V     0.5395   0.1125   0.4633
V12     V     0.5395   0.1125   0.9633
V13     V     0.4605   0.8875   0.0367
V14     V     0.4605   0.8875   0.5367
V15     V     0.2061   0.7603   0.38
V16     V     0.2061   0.7603   0.88
V17     V     0.8728   0.0937   0.0466
V18     V     0.8728   0.0937   0.5466
V19     V     0.1272   0.2209   0.2034
V20     V     0.1272   0.2209   0.7034
V21     V     0.4605   0.573   0.2867
V22     V     0.4605   0.573   0.7867
V23     V     0.2061   0.4458   0.13
V24     V     0.2061   0.4458   0.63
V25     V     0.7603   0.5542   0.12
V26     V     0.7603   0.5542   0.62
V27     V     0.8875   0.427   0.4633
V28     V     0.8875   0.427   0.9633
V29     V     0.7791   0.9063   0.2034
V30     V     0.7791   0.9063   0.7034
V31     V     0.9063   0.7791   0.0466
V32     V     0.9063   0.7791   0.5466
V33     V     0.573   0.1125   0.2133
V34     V     0.573   0.1125   0.7133
V35     V     0.4458   0.2397   0.37
V36     V     0.4458   0.2397   0.87
V37     V     0.427   0.8875   0.2867
V38     V     0.427   0.8875   0.7867
V39     V     0.5542   0.7603   0.13
V40     V     0.5542   0.7603   0.63
V41     V     0.2397   0.4458   0.38
V42     V     0.2397   0.4458   0.88
V43     V     0.1125   0.573   0.0367
V44     V     0.1125   0.573   0.5367
V45     V     0.2209   0.0937   0.2966
V46     V     0.2209   0.0937   0.7966
V47     V     0.0937   0.2209   0.4534
V48     V     0.0937   0.2209   0.9534
V49     V     0.8875   0.4605   0.2133
V50     V     0.8875   0.4605   0.7133
V51     V     0.7603   0.2061   0.37
V52     V     0.7603   0.2061   0.87
V53     V     0.9063   0.1272   0.2966
V54     V     0.9063   0.1272   0.7966
V55     V     0.7791   0.8728   0.4534
V56     V     0.7791   0.8728   0.9534
V57     V     0.5542   0.7939   0.38
V58     V     0.5542   0.7939   0.88
V59     V     0.427   0.5395   0.0367
V60     V     0.427   0.5395   0.5367
V61     V     0.573   0.4605   0.4633
V62     V     0.573   0.4605   0.9633
V63     V     0.4458   0.2061   0.12
V64     V     0.4458   0.2061   0.62
V65     V     0.2397   0.7939   0.13
V66     V     0.2397   0.7939   0.63
V67     V     0.1125   0.5395   0.2867
V68     V     0.1125   0.5395   0.7867
V69     V     0.2209   0.1272   0.0466
V70     V     0.2209   0.1272   0.5466
V71     V     0.0937   0.8728   0.2034
V72     V     0.0937   0.8728   0.7034
loop_
_geom_bond_atom_site_label_1
_geom_bond_atom_site_label_2
_geom_bond_distance
_geom_bond_site_symmetry_2
_ccdc_geom_bond_type
V1     V71    10.0   1_655     S
V1     V31    10.0   .     S
V1     V5    10.0   .     S
V1     V29    10.0   .     S
V1     V55    10.0   .     S
V1     V32    10.0   .     S
V2     V72    10.0   1_655     S
V2     V32    10.0   .     S
V2     V6    10.0   .     S
V2     V30    10.0   .     S
V2     V56    10.0   .     S
V2     V31    10.0   1_556     S
V3     V15    10.0   .     S
V3     V32    10.0   1_455     S
V3     V72    10.0   .     S
V3     V70    10.0   1_565     S
V3     V45    10.0   1_565     S
V3     V71    10.0   .     S
V4     V16    10.0   .     S
V4     V31    10.0   1_456     S
V4     V71    10.0   1_556     S
V4     V69    10.0   1_566     S
V4     V46    10.0   1_565     S
V4     V72    10.0   .     S
V5     V61    10.0   .     S
V5     V26    10.0   .     S
V5     V27    10.0   .     S
V5     V49    10.0   .     S
V5     V25    10.0   .     S
V6     V62    10.0   .     S
V6     V25    10.0   1_556     S
V6     V28    10.0   .     S
V6     V50    10.0   .     S
V6     V26    10.0   .     S
V7     V62    10.0   1_554     S
V7     V25    10.0   .     S
V7     V21    10.0   .     S
V7     V63    10.0   .     S
V7     V35    10.0   .     S
V7     V61    10.0   .     S
V8     V61    10.0   .     S
V8     V26    10.0   .     S
V8     V22    10.0   .     S
V8     V64    10.0   .     S
V8     V36    10.0   .     S
V8     V62    10.0   .     S
V9     V33    10.0   .     S
V9     V51    10.0   .     S
V9     V17    10.0   .     S
V9     V49    10.0   .     S
V9     V28    10.0   1_554     S
V9     V52    10.0   1_554     S
V10     V34    10.0   .     S
V10     V52    10.0   .     S
V10     V18    10.0   .     S
V10     V50    10.0   .     S
V10     V27    10.0   .     S
V10     V51    10.0   .     S
V11     V51    10.0   .     S
V11     V33    10.0   .     S
V11     V14    10.0   1_545     S
V11     V35    10.0   .     S
V11     V64    10.0   .     S
V11     V34    10.0   .     S
V12     V52    10.0   .     S
V12     V34    10.0   .     S
V12     V13    10.0   1_546     S
V12     V36    10.0   .     S
V12     V63    10.0   1_556     S
V12     V33    10.0   1_556     S
V13     V12    10.0   1_564     S
V13     V65    10.0   .     S
V13     V37    10.0   .     S
V13     V39    10.0   .     S
V13     V58    10.0   1_554     S
V13     V38    10.0   1_554     S
V14     V11    10.0   1_565     S
V14     V66    10.0   .     S
V14     V38    10.0   .     S
V14     V40    10.0   .     S
V14     V57    10.0   .     S
V14     V37    10.0   .     S
V15     V37    10.0   .     S
V15     V65    10.0   .     S
V15     V67    10.0   .     S
V15     V44    10.0   .     S
V15     V66    10.0   .     S
V16     V38    10.0   .     S
V16     V66    10.0   .     S
V16     V68    10.0   .     S
V16     V43    10.0   1_556     S
V16     V65    10.0   1_556     S
V17     V48    10.0   1_654     S
V17     V54    10.0   1_554     S
V17     V56    10.0   1_544     S
V17     V29    10.0   1_545     S
V17     V53    10.0   .     S
V18     V47    10.0   1_655     S
V18     V53    10.0   .     S
V18     V55    10.0   1_545     S
V18     V30    10.0   1_545     S
V18     V54    10.0   .     S
V19     V53    10.0   1_455     S
V19     V47    10.0   .     S
V19     V23    10.0   .     S
V19     V45    10.0   .     S
V19     V69    10.0   .     S
V19     V48    10.0   1_554     S
V20     V54    10.0   1_455     S
V20     V48    10.0   .     S
V20     V24    10.0   .     S
V20     V46    10.0   .     S
V20     V70    10.0   .     S
V20     V47    10.0   .     S
V21     V41    10.0   .     S
V21     V60    10.0   .     S
V21     V57    10.0   .     S
V21     V39    10.0   .     S
V21     V59    10.0   .     S
V22     V42    10.0   .     S
V22     V59    10.0   1_556     S
V22     V58    10.0   .     S
V22     V40    10.0   .     S
V22     V60    10.0   .     S
V23     V59    10.0   .     S
V23     V42    10.0   1_554     S
V23     V67    10.0   .     S
V23     V41    10.0   .     S
V23     V43    10.0   .     S
V24     V60    10.0   .     S
V24     V41    10.0   .     S
V24     V68    10.0   .     S
V24     V42    10.0   .     S
V24     V44    10.0   .     S
V25     V62    10.0   1_554     S
V25     V6    10.0   1_554     S
V25     V31    10.0   .     S
V25     V49    10.0   .     S
V26     V61    10.0   .     S
V26     V32    10.0   .     S
V26     V50    10.0   .     S
V27     V49    10.0   .     S
V27     V44    10.0   1_655     S
V27     V51    10.0   .     S
V27     V50    10.0   .     S
V28     V50    10.0   .     S
V28     V43    10.0   1_656     S
V28     V52    10.0   .     S
V28     V9    10.0   1_556     S
V28     V49    10.0   1_556     S
V29     V55    10.0   .     S
V29     V39    10.0   .     S
V29     V53    10.0   1_565     S
V29     V17    10.0   1_565     S
V29     V56    10.0   1_554     S
V30     V56    10.0   .     S
V30     V40    10.0   .     S
V30     V54    10.0   1_565     S
V30     V18    10.0   1_565     S
V30     V55    10.0   .     S
V31     V4    10.0   1_654     S
V31     V71    10.0   1_655     S
V31     V56    10.0   1_554     S
V31     V2    10.0   1_554     S
V32     V3    10.0   1_655     S
V32     V72    10.0   1_655     S
V32     V55    10.0   .     S
V33     V51    10.0   .     S
V33     V63    10.0   .     S
V33     V12    10.0   1_554     S
V33     V37    10.0   1_545     S
V34     V52    10.0   .     S
V34     V64    10.0   .     S
V34     V38    10.0   1_545     S
V35     V64    10.0   .     S
V35     V45    10.0   .     S
V35     V61    10.0   .     S
V35     V63    10.0   .     S
V36     V63    10.0   1_556     S
V36     V46    10.0   .     S
V36     V62    10.0   .     S
V36     V64    10.0   .     S
V37     V65    10.0   .     S
V37     V33    10.0   1_565     S
V37     V57    10.0   .     S
V38     V66    10.0   .     S
V38     V34    10.0   1_565     S
V38     V58    10.0   .     S
V38     V13    10.0   1_556     S
V39     V58    10.0   1_554     S
V39     V59    10.0   .     S
V39     V57    10.0   .     S
V40     V57    10.0   .     S
V40     V60    10.0   .     S
V40     V58    10.0   .     S
V41     V60    10.0   .     S
V41     V47    10.0   .     S
V41     V67    10.0   .     S
V42     V59    10.0   1_556     S
V42     V23    10.0   1_556     S
V42     V48    10.0   .     S
V42     V68    10.0   .     S
V43     V28    10.0   1_454     S
V43     V67    10.0   .     S
V43     V65    10.0   .     S
V43     V16    10.0   1_554     S
V43     V68    10.0   1_554     S
V44     V27    10.0   1_455     S
V44     V68    10.0   .     S
V44     V66    10.0   .     S
V44     V67    10.0   .     S
V45     V69    10.0   .     S
V45     V71    10.0   1_545     S
V45     V3    10.0   1_545     S
V45     V70    10.0   .     S
V46     V70    10.0   .     S
V46     V72    10.0   1_545     S
V46     V4    10.0   1_545     S
V46     V69    10.0   1_556     S
V47     V18    10.0   1_455     S
V47     V53    10.0   1_455     S
V47     V70    10.0   .     S
V48     V17    10.0   1_456     S
V48     V54    10.0   1_455     S
V48     V19    10.0   1_556     S
V48     V69    10.0   1_556     S
V49     V28    10.0   1_554     S
V49     V67    10.0   1_655     S
V50     V68    10.0   1_655     S
V51     V53    10.0   .     S
V52     V54    10.0   .     S
V52     V9    10.0   1_556     S
V53     V19    10.0   1_655     S
V53     V47    10.0   1_655     S
V53     V29    10.0   1_545     S
V54     V20    10.0   1_655     S
V54     V48    10.0   1_655     S
V54     V17    10.0   1_556     S
V54     V30    10.0   1_545     S
V55     V18    10.0   1_565     S
V55     V57    10.0   .     S
V56     V31    10.0   1_556     S
V56     V17    10.0   1_566     S
V56     V29    10.0   1_556     S
V56     V58    10.0   .     S
V58     V13    10.0   1_556     S
V58     V39    10.0   1_556     S
V59     V42    10.0   1_554     S
V59     V22    10.0   1_554     S
V59     V62    10.0   1_554     S
V60     V61    10.0   .     S
V62     V25    10.0   1_556     S
V62     V7    10.0   1_556     S
V62     V59    10.0   1_556     S
V63     V12    10.0   1_554     S
V63     V36    10.0   1_554     S
V63     V69    10.0   .     S
V64     V70    10.0   .     S
V65     V71    10.0   .     S
V65     V16    10.0   1_554     S
V66     V72    10.0   .     S
V67     V49    10.0   1_455     S
V68     V50    10.0   1_455     S
V68     V43    10.0   1_556     S
V69     V48    10.0   1_554     S
V69     V4    10.0   1_544     S
V69     V46    10.0   1_554     S
V70     V3    10.0   1_545     S
V71     V1    10.0   1_455     S
V71     V31    10.0   1_455     S
V71     V4    10.0   1_554     S
V71     V45    10.0   1_565     S
V72     V2    10.0   1_455     S
V72     V32    10.0   1_455     S
V72     V46    10.0   1_565     S
