data_wnd
_audit_creation_date              2019-12-31
_audit_creation_method            'Pymatgen'
_symmetry_space_group_name_H-M    'P1'
_symmetry_Int_Tables_number       1
loop_
_symmetry_equiv_pos_as_xyz
  x,y,z
_cell_length_a                    39.7854
_cell_length_b                    39.7854
_cell_length_c                    112.505
_cell_angle_alpha                 90.0
_cell_angle_beta                 90.0
_cell_angle_gamma                 120.0
loop_
_atom_site_label
_atom_site_type_symbol
_atom_site_fract_x
_atom_site_fract_y
_atom_site_fract_z
V1     V     0.4017   0.0683   0.6225
V2     V     0.4017   0.5683   0.6225
V3     V     0.9017   0.0683   0.6225
V4     V     0.9017   0.5683   0.6225
V5     V     0.4317   0.0983   0.7108
V6     V     0.4317   0.5983   0.7108
V7     V     0.9317   0.0983   0.7108
V8     V     0.9317   0.5983   0.7108
V9     V     0.4317   0.3333   0.6225
V10     V     0.4317   0.8333   0.6225
V11     V     0.9317   0.3333   0.6225
V12     V     0.9317   0.8333   0.6225
V13     V     0.4017   0.3333   0.7108
V14     V     0.4017   0.8333   0.7108
V15     V     0.9017   0.3333   0.7108
V16     V     0.9017   0.8333   0.7108
V17     V     0.1667   0.0983   0.6225
V18     V     0.1667   0.5983   0.6225
V19     V     0.6667   0.0983   0.6225
V20     V     0.6667   0.5983   0.6225
V21     V     0.1667   0.0683   0.7108
V22     V     0.1667   0.5683   0.7108
V23     V     0.6667   0.0683   0.7108
V24     V     0.6667   0.5683   0.7108
V25     V     0.0983   0.1667   0.8775
V26     V     0.0983   0.6667   0.8775
V27     V     0.5983   0.1667   0.8775
V28     V     0.5983   0.6667   0.8775
V29     V     0.0683   0.1667   0.7892
V30     V     0.0683   0.6667   0.7892
V31     V     0.5683   0.1667   0.7892
V32     V     0.5683   0.6667   0.7892
V33     V     0.3333   0.4317   0.8775
V34     V     0.3333   0.9317   0.8775
V35     V     0.8333   0.4317   0.8775
V36     V     0.8333   0.9317   0.8775
V37     V     0.3333   0.4017   0.7892
V38     V     0.3333   0.9017   0.7892
V39     V     0.8333   0.4017   0.7892
V40     V     0.8333   0.9017   0.7892
V41     V     0.0683   0.4017   0.8775
V42     V     0.0683   0.9017   0.8775
V43     V     0.5683   0.4017   0.8775
V44     V     0.5683   0.9017   0.8775
V45     V     0.0983   0.4317   0.7892
V46     V     0.0983   0.9317   0.7892
V47     V     0.5983   0.4317   0.7892
V48     V     0.5983   0.9317   0.7892
V49     V     0.235   0.235   0.5441
V50     V     0.235   0.735   0.5441
V51     V     0.735   0.235   0.5441
V52     V     0.735   0.735   0.5441
V53     V     0.265   0.265   0.4559
V54     V     0.265   0.765   0.4559
V55     V     0.765   0.265   0.4559
V56     V     0.765   0.765   0.4559
V57     V     0.265   0.0   0.5441
V58     V     0.265   0.5   0.5441
V59     V     0.765   0.0   0.5441
V60     V     0.765   0.5   0.5441
V61     V     0.235   0.0   0.4559
V62     V     0.235   0.5   0.4559
V63     V     0.735   0.0   0.4559
V64     V     0.735   0.5   0.4559
V65     V     1.0   0.265   0.5441
V66     V     0.0   0.765   0.5441
V67     V     0.5   0.265   0.5441
V68     V     0.5   0.765   0.5441
V69     V     1.0   0.235   0.4559
V70     V     1.0   0.735   0.4559
V71     V     0.5   0.235   0.4559
V72     V     0.5   0.735   0.4559
V73     V     0.0983   0.1667   0.2892
V74     V     0.0983   0.6667   0.2892
V75     V     0.5983   0.1667   0.2892
V76     V     0.5983   0.6667   0.2892
V77     V     0.0683   0.1667   0.3775
V78     V     0.0683   0.6667   0.3775
V79     V     0.5683   0.1667   0.3775
V80     V     0.5683   0.6667   0.3775
V81     V     0.0683   0.4017   0.2892
V82     V     0.0683   0.9017   0.2892
V83     V     0.5683   0.4017   0.2892
V84     V     0.5683   0.9017   0.2892
V85     V     0.0983   0.4317   0.3775
V86     V     0.0983   0.9317   0.3775
V87     V     0.5983   0.4317   0.3775
V88     V     0.5983   0.9317   0.3775
V89     V     0.3333   0.4317   0.2892
V90     V     0.3333   0.9317   0.2892
V91     V     0.8333   0.4317   0.2892
V92     V     0.8333   0.9317   0.2892
V93     V     0.3333   0.4017   0.3775
V94     V     0.3333   0.9017   0.3775
V95     V     0.8333   0.4017   0.3775
V96     V     0.8333   0.9017   0.3775
V97     V     0.4317   0.3333   0.2108
V98     V     0.4317   0.8333   0.2108
V99     V     0.9317   0.3333   0.2108
V100     V     0.9317   0.8333   0.2108
V101     V     0.4017   0.3333   0.1225
V102     V     0.4017   0.8333   0.1225
V103     V     0.9017   0.3333   0.1225
V104     V     0.9017   0.8333   0.1225
V105     V     0.1667   0.0983   0.2108
V106     V     0.1667   0.5983   0.2108
V107     V     0.6667   0.0983   0.2108
V108     V     0.6667   0.5983   0.2108
V109     V     0.1667   0.0683   0.1225
V110     V     0.1667   0.5683   0.1225
V111     V     0.6667   0.0683   0.1225
V112     V     0.6667   0.5683   0.1225
V113     V     0.4017   0.0683   0.2108
V114     V     0.4017   0.5683   0.2108
V115     V     0.9017   0.0683   0.2108
V116     V     0.9017   0.5683   0.2108
V117     V     0.4317   0.0983   0.1225
V118     V     0.4317   0.5983   0.1225
V119     V     0.9317   0.0983   0.1225
V120     V     0.9317   0.5983   0.1225
V121     V     0.265   0.265   0.0441
V122     V     0.265   0.765   0.0441
V123     V     0.765   0.265   0.0441
V124     V     0.765   0.765   0.0441
V125     V     0.235   0.235   0.9559
V126     V     0.235   0.735   0.9559
V127     V     0.735   0.235   0.9559
V128     V     0.735   0.735   0.9559
V129     V     1.0   0.235   0.0441
V130     V     1.0   0.735   0.0441
V131     V     0.5   0.235   0.0441
V132     V     0.5   0.735   0.0441
V133     V     1.0   0.265   0.9559
V134     V     0.0   0.765   0.9559
V135     V     0.5   0.265   0.9559
V136     V     0.5   0.765   0.9559
V137     V     0.235   0.0   0.0441
V138     V     0.235   0.5   0.0441
V139     V     0.735   0.0   0.0441
V140     V     0.735   0.5   0.0441
V141     V     0.265   0.0   0.9559
V142     V     0.265   0.5   0.9559
V143     V     0.765   0.0   0.9559
V144     V     0.765   0.5   0.9559
loop_
_geom_bond_atom_site_label_1
_geom_bond_atom_site_label_2
_geom_bond_distance
_geom_bond_site_symmetry_2
_ccdc_geom_bond_type
V1     V57    10.001   .     S
V1     V5    9.999   .     S
V1     V10    10.0   1_545     S
V1     V19    10.0   .     S
V1     V17    10.0   .     S
V1     V9    10.0   .     S
V2     V58    10.001   .     S
V2     V6    9.999   .     S
V2     V9    10.0   .     S
V2     V20    10.0   .     S
V2     V18    10.0   .     S
V2     V10    10.0   .     S
V3     V59    10.001   .     S
V3     V7    9.999   .     S
V3     V12    10.0   1_545     S
V3     V17    10.0   1_655     S
V3     V19    10.0   .     S
V3     V11    10.0   .     S
V4     V60    10.001   .     S
V4     V8    9.999   .     S
V4     V11    10.0   .     S
V4     V18    10.0   1_655     S
V4     V20    10.0   .     S
V4     V12    10.0   .     S
V5     V31    10.001   .     S
V5     V21    10.0   .     S
V5     V13    10.0   .     S
V5     V14    10.0   1_545     S
V5     V23    10.0   .     S
V6     V32    10.001   .     S
V6     V22    10.0   .     S
V6     V14    10.0   .     S
V6     V13    10.0   .     S
V6     V24    10.0   .     S
V7     V29    10.001   1_655     S
V7     V23    10.0   .     S
V7     V15    10.0   .     S
V7     V16    10.0   1_545     S
V7     V21    10.0   1_655     S
V8     V30    10.001   1_655     S
V8     V24    10.0   .     S
V8     V16    10.0   .     S
V8     V15    10.0   .     S
V8     V22    10.0   1_655     S
V9     V67    10.001   .     S
V9     V13    9.999   .     S
V9     V17    10.0   .     S
V9     V20    10.0   .     S
V10     V68    10.001   .     S
V10     V1    10.0   1_565     S
V10     V14    9.999   .     S
V10     V18    10.0   .     S
V10     V19    10.0   1_565     S
V11     V65    10.001   .     S
V11     V15    9.999   .     S
V11     V19    10.0   .     S
V11     V18    10.0   1_655     S
V12     V66    10.001   1_655     S
V12     V3    10.0   1_565     S
V12     V16    9.999   .     S
V12     V20    10.0   .     S
V12     V17    10.0   1_665     S
V13     V37    10.001   .     S
V13     V24    10.0   .     S
V13     V21    10.0   .     S
V14     V38    10.001   .     S
V14     V5    10.0   1_565     S
V14     V23    10.0   1_565     S
V14     V22    10.0   .     S
V15     V39    10.001   .     S
V15     V22    10.0   1_655     S
V15     V23    10.0   .     S
V16     V40    10.001   .     S
V16     V7    10.0   1_565     S
V16     V21    10.0   1_665     S
V16     V24    10.0   .     S
V17     V49    10.001   .     S
V17     V3    10.0   1_455     S
V17     V21    9.999   .     S
V17     V12    10.0   1_445     S
V18     V50    10.001   .     S
V18     V4    10.0   1_455     S
V18     V22    9.999   .     S
V18     V11    10.0   1_455     S
V19     V51    10.001   .     S
V19     V23    9.999   .     S
V19     V10    10.0   1_545     S
V20     V52    10.001   .     S
V20     V24    9.999   .     S
V21     V16    10.0   1_445     S
V21     V7    10.0   1_455     S
V21     V46    10.001   1_545     S
V22     V15    10.0   1_455     S
V22     V8    10.0   1_455     S
V22     V45    10.001   .     S
V23     V14    10.0   1_545     S
V23     V48    10.001   1_545     S
V24     V47    10.001   .     S
V25     V41    10.0   .     S
V25     V33    10.0   .     S
V25     V29    9.999   .     S
V25     V42    10.0   1_545     S
V25     V36    10.0   1_445     S
V25     V125    10.001   .     S
V26     V42    10.0   .     S
V26     V34    10.0   .     S
V26     V30    9.999   .     S
V26     V41    10.0   .     S
V26     V35    10.0   1_455     S
V26     V126    10.001   .     S
V27     V43    10.0   .     S
V27     V35    10.0   .     S
V27     V31    9.999   .     S
V27     V44    10.0   1_545     S
V27     V34    10.0   1_545     S
V27     V127    10.001   .     S
V28     V44    10.0   .     S
V28     V36    10.0   .     S
V28     V32    9.999   .     S
V28     V43    10.0   .     S
V28     V33    10.0   .     S
V28     V128    10.001   .     S
V29     V7    10.001   1_455     S
V29     V40    10.0   1_445     S
V29     V45    10.0   .     S
V29     V37    10.0   .     S
V29     V46    10.0   1_545     S
V30     V8    10.001   1_455     S
V30     V39    10.0   1_455     S
V30     V46    10.0   .     S
V30     V38    10.0   .     S
V30     V45    10.0   .     S
V31     V38    10.0   1_545     S
V31     V47    10.0   .     S
V31     V39    10.0   .     S
V31     V48    10.0   1_545     S
V32     V37    10.0   .     S
V32     V48    10.0   .     S
V32     V40    10.0   .     S
V32     V47    10.0   .     S
V33     V37    9.999   .     S
V33     V43    10.0   .     S
V33     V41    10.0   .     S
V33     V142    10.001   .     S
V34     V38    9.999   .     S
V34     V44    10.0   .     S
V34     V27    10.0   1_565     S
V34     V42    10.0   .     S
V34     V141    10.001   1_565     S
V35     V39    9.999   .     S
V35     V41    10.0   1_655     S
V35     V26    10.0   1_655     S
V35     V43    10.0   .     S
V35     V144    10.001   .     S
V36     V40    9.999   .     S
V36     V42    10.0   1_655     S
V36     V25    10.0   1_665     S
V36     V44    10.0   .     S
V36     V143    10.001   1_565     S
V37     V47    10.0   .     S
V37     V45    10.0   .     S
V38     V48    10.0   .     S
V38     V31    10.0   1_565     S
V38     V46    10.0   .     S
V39     V45    10.0   1_655     S
V39     V30    10.0   1_655     S
V39     V47    10.0   .     S
V40     V46    10.0   1_655     S
V40     V29    10.0   1_665     S
V40     V48    10.0   .     S
V41     V45    9.999   .     S
V41     V35    10.0   1_455     S
V41     V133    10.001   1_455     S
V42     V46    9.999   .     S
V42     V36    10.0   1_455     S
V42     V25    10.0   1_565     S
V42     V134    10.001   .     S
V43     V47    9.999   .     S
V43     V135    10.001   .     S
V44     V48    9.999   .     S
V44     V27    10.0   1_565     S
V44     V136    10.001   .     S
V45     V39    10.0   1_455     S
V46     V21    10.001   1_565     S
V46     V40    10.0   1_455     S
V46     V29    10.0   1_565     S
V48     V23    10.001   1_565     S
V48     V31    10.0   1_565     S
V49     V53    9.999   .     S
V49     V57    10.0   .     S
V49     V67    10.0   .     S
V49     V65    10.0   1_455     S
V49     V58    10.0   .     S
V50     V54    9.999   .     S
V50     V58    10.0   .     S
V50     V68    10.0   .     S
V50     V66    10.0   .     S
V50     V57    10.0   1_565     S
V51     V55    9.999   .     S
V51     V59    10.0   .     S
V51     V65    10.0   .     S
V51     V67    10.0   .     S
V51     V60    10.0   .     S
V52     V56    9.999   .     S
V52     V60    10.0   .     S
V52     V66    10.0   1_655     S
V52     V68    10.0   .     S
V52     V59    10.0   1_565     S
V53     V93    10.001   .     S
V53     V62    10.0   .     S
V53     V69    10.0   1_455     S
V53     V71    10.0   .     S
V53     V61    10.0   .     S
V54     V94    10.001   .     S
V54     V61    10.0   1_565     S
V54     V70    10.0   1_455     S
V54     V72    10.0   .     S
V54     V62    10.0   .     S
V55     V95    10.001   .     S
V55     V64    10.0   .     S
V55     V71    10.0   .     S
V55     V69    10.0   .     S
V55     V63    10.0   .     S
V56     V96    10.001   .     S
V56     V63    10.0   1_565     S
V56     V72    10.0   .     S
V56     V70    10.0   .     S
V56     V64    10.0   .     S
V57     V67    10.0   .     S
V57     V61    9.999   .     S
V57     V66    10.0   1_545     S
V57     V50    10.0   1_545     S
V58     V68    10.0   .     S
V58     V62    9.999   .     S
V58     V65    10.0   1_455     S
V59     V65    10.0   .     S
V59     V63    9.999   .     S
V59     V68    10.0   1_545     S
V59     V52    10.0   1_545     S
V60     V66    10.0   1_655     S
V60     V64    9.999   .     S
V60     V67    10.0   .     S
V61     V86    10.001   1_545     S
V61     V54    10.0   1_545     S
V61     V71    10.0   .     S
V61     V70    10.0   1_445     S
V62     V85    10.001   .     S
V62     V72    10.0   .     S
V62     V69    10.0   1_455     S
V63     V88    10.001   1_545     S
V63     V56    10.0   1_545     S
V63     V69    10.0   .     S
V63     V72    10.0   1_545     S
V64     V87    10.001   .     S
V64     V70    10.0   .     S
V64     V71    10.0   .     S
V65     V49    10.0   1_655     S
V65     V58    10.0   1_655     S
V65     V69    9.999   .     S
V66     V12    10.001   1_455     S
V66     V60    10.0   1_455     S
V66     V52    10.0   1_455     S
V66     V57    10.0   1_565     S
V66     V70    9.999   1_455     S
V67     V71    9.999   .     S
V68     V59    10.0   1_565     S
V68     V72    9.999   .     S
V69     V53    10.0   1_655     S
V69     V62    10.0   1_655     S
V69     V77    10.001   1_655     S
V70     V54    10.0   1_655     S
V70     V66    9.999   1_655     S
V70     V61    10.0   1_665     S
V70     V78    10.001   1_655     S
V71     V79    10.001   .     S
V72     V63    10.0   1_565     S
V72     V80    10.001   .     S
V73     V105    10.001   .     S
V73     V77    9.999   .     S
V73     V81    10.0   .     S
V73     V89    10.0   .     S
V73     V92    10.0   1_445     S
V73     V82    10.0   1_545     S
V74     V106    10.001   .     S
V74     V78    9.999   .     S
V74     V82    10.0   .     S
V74     V90    10.0   .     S
V74     V91    10.0   1_455     S
V74     V81    10.0   .     S
V75     V107    10.001   .     S
V75     V79    9.999   .     S
V75     V83    10.0   .     S
V75     V91    10.0   .     S
V75     V90    10.0   1_545     S
V75     V84    10.0   1_545     S
V76     V108    10.001   .     S
V76     V80    9.999   .     S
V76     V84    10.0   .     S
V76     V92    10.0   .     S
V76     V89    10.0   .     S
V76     V83    10.0   .     S
V77     V69    10.001   1_455     S
V77     V85    10.0   .     S
V77     V93    10.0   .     S
V77     V86    10.0   1_545     S
V77     V96    10.0   1_445     S
V78     V70    10.001   1_455     S
V78     V86    10.0   .     S
V78     V94    10.0   .     S
V78     V85    10.0   .     S
V78     V95    10.0   1_455     S
V79     V87    10.0   .     S
V79     V95    10.0   .     S
V79     V88    10.0   1_545     S
V79     V94    10.0   1_545     S
V80     V88    10.0   .     S
V80     V96    10.0   .     S
V80     V87    10.0   .     S
V80     V93    10.0   .     S
V81     V99    10.001   1_455     S
V81     V85    9.999   .     S
V81     V91    10.0   1_455     S
V81     V89    10.0   .     S
V82     V100    10.001   1_455     S
V82     V86    9.999   .     S
V82     V92    10.0   1_455     S
V82     V90    10.0   .     S
V82     V73    10.0   1_565     S
V83     V97    10.001   .     S
V83     V87    9.999   .     S
V83     V89    10.0   .     S
V83     V91    10.0   .     S
V84     V98    10.001   .     S
V84     V88    9.999   .     S
V84     V90    10.0   .     S
V84     V92    10.0   .     S
V84     V75    10.0   1_565     S
V85     V93    10.0   .     S
V85     V95    10.0   1_455     S
V86     V61    10.001   1_565     S
V86     V77    10.0   1_565     S
V86     V94    10.0   .     S
V86     V96    10.0   1_455     S
V87     V95    10.0   .     S
V87     V93    10.0   .     S
V88     V63    10.001   1_565     S
V88     V79    10.0   1_565     S
V88     V96    10.0   .     S
V88     V94    10.0   .     S
V89     V93    9.999   .     S
V89     V114    10.001   .     S
V90     V75    10.0   1_565     S
V90     V94    9.999   .     S
V90     V113    10.001   1_565     S
V91     V81    10.0   1_655     S
V91     V74    10.0   1_655     S
V91     V95    9.999   .     S
V91     V116    10.001   .     S
V92     V82    10.0   1_655     S
V92     V73    10.0   1_665     S
V92     V96    9.999   .     S
V92     V115    10.001   1_565     S
V94     V79    10.0   1_565     S
V95     V78    10.0   1_655     S
V95     V85    10.0   1_655     S
V96     V77    10.0   1_665     S
V96     V86    10.0   1_655     S
V97     V101    9.999   .     S
V97     V113    10.0   .     S
V97     V105    10.0   .     S
V97     V108    10.0   .     S
V97     V114    10.0   .     S
V98     V102    9.999   .     S
V98     V114    10.0   .     S
V98     V106    10.0   .     S
V98     V107    10.0   1_565     S
V98     V113    10.0   1_565     S
V99     V81    10.001   1_655     S
V99     V103    9.999   .     S
V99     V115    10.0   .     S
V99     V107    10.0   .     S
V99     V106    10.0   1_655     S
V99     V116    10.0   .     S
V100     V82    10.001   1_655     S
V100     V104    9.999   .     S
V100     V116    10.0   .     S
V100     V108    10.0   .     S
V100     V105    10.0   1_665     S
V100     V115    10.0   1_565     S
V101     V121    10.001   .     S
V101     V109    10.0   .     S
V101     V117    10.0   .     S
V101     V118    10.0   .     S
V101     V112    10.0   .     S
V102     V122    10.001   .     S
V102     V110    10.0   .     S
V102     V118    10.0   .     S
V102     V117    10.0   1_565     S
V102     V111    10.0   1_565     S
V103     V123    10.001   .     S
V103     V111    10.0   .     S
V103     V119    10.0   .     S
V103     V120    10.0   .     S
V103     V110    10.0   1_655     S
V104     V124    10.001   .     S
V104     V112    10.0   .     S
V104     V120    10.0   .     S
V104     V119    10.0   1_565     S
V104     V109    10.0   1_665     S
V105     V115    10.0   1_455     S
V105     V100    10.0   1_445     S
V105     V109    9.999   .     S
V105     V113    10.0   .     S
V106     V116    10.0   1_455     S
V106     V99    10.0   1_455     S
V106     V110    9.999   .     S
V106     V114    10.0   .     S
V107     V113    10.0   .     S
V107     V98    10.0   1_545     S
V107     V111    9.999   .     S
V107     V115    10.0   .     S
V108     V114    10.0   .     S
V108     V112    9.999   .     S
V108     V116    10.0   .     S
V109     V137    10.001   .     S
V109     V117    10.0   .     S
V109     V104    10.0   1_445     S
V109     V119    10.0   1_455     S
V110     V138    10.001   .     S
V110     V118    10.0   .     S
V110     V103    10.0   1_455     S
V110     V120    10.0   1_455     S
V111     V139    10.001   .     S
V111     V119    10.0   .     S
V111     V102    10.0   1_545     S
V111     V117    10.0   .     S
V112     V140    10.001   .     S
V112     V120    10.0   .     S
V112     V118    10.0   .     S
V113     V90    10.001   1_545     S
V113     V117    9.999   .     S
V113     V98    10.0   1_545     S
V114     V118    9.999   .     S
V115     V92    10.001   1_545     S
V115     V105    10.0   1_655     S
V115     V119    9.999   .     S
V115     V100    10.0   1_545     S
V116     V106    10.0   1_655     S
V116     V120    9.999   .     S
V117     V131    10.001   .     S
V117     V102    10.0   1_545     S
V118     V132    10.001   .     S
V119     V129    10.001   .     S
V119     V104    10.0   1_545     S
V119     V109    10.0   1_655     S
V120     V130    10.001   .     S
V120     V110    10.0   1_655     S
V121     V125    9.999   1_554     S
V121     V138    10.0   .     S
V121     V137    10.0   .     S
V121     V129    10.0   1_455     S
V121     V131    10.0   .     S
V122     V126    9.999   1_554     S
V122     V137    10.0   1_565     S
V122     V138    10.0   .     S
V122     V130    10.0   1_455     S
V122     V132    10.0   .     S
V123     V127    9.999   1_554     S
V123     V140    10.0   .     S
V123     V139    10.0   .     S
V123     V131    10.0   .     S
V123     V129    10.0   .     S
V124     V128    9.999   1_554     S
V124     V139    10.0   1_565     S
V124     V140    10.0   .     S
V124     V132    10.0   .     S
V124     V130    10.0   .     S
V125     V121    9.999   1_556     S
V125     V142    10.0   .     S
V125     V133    10.0   1_455     S
V125     V141    10.0   .     S
V125     V135    10.0   .     S
V126     V122    9.999   1_556     S
V126     V141    10.0   1_565     S
V126     V134    10.0   .     S
V126     V142    10.0   .     S
V126     V136    10.0   .     S
V127     V123    9.999   1_556     S
V127     V144    10.0   .     S
V127     V135    10.0   .     S
V127     V143    10.0   .     S
V127     V133    10.0   .     S
V128     V124    9.999   1_556     S
V128     V143    10.0   1_565     S
V128     V136    10.0   .     S
V128     V144    10.0   .     S
V128     V134    10.0   1_655     S
V129     V133    9.999   1_554     S
V129     V138    10.0   1_655     S
V129     V121    10.0   1_655     S
V129     V139    10.0   .     S
V130     V134    9.999   1_654     S
V130     V137    10.0   1_665     S
V130     V122    10.0   1_655     S
V130     V140    10.0   .     S
V131     V135    9.999   1_554     S
V131     V140    10.0   .     S
V131     V137    10.0   .     S
V132     V136    9.999   1_554     S
V132     V139    10.0   1_565     S
V132     V138    10.0   .     S
V133     V41    10.001   1_655     S
V133     V129    9.999   1_556     S
V133     V142    10.0   1_655     S
V133     V125    10.0   1_655     S
V133     V143    10.0   .     S
V134     V130    9.999   1_456     S
V134     V141    10.0   1_565     S
V134     V144    10.0   1_455     S
V134     V128    10.0   1_455     S
V135     V131    9.999   1_556     S
V135     V144    10.0   .     S
V135     V141    10.0   .     S
V136     V132    9.999   1_556     S
V136     V143    10.0   1_565     S
V136     V142    10.0   .     S
V137     V122    10.0   1_545     S
V137     V141    9.999   1_554     S
V137     V130    10.0   1_445     S
V138     V142    9.999   1_554     S
V138     V129    10.0   1_455     S
V139     V124    10.0   1_545     S
V139     V143    9.999   1_554     S
V139     V132    10.0   1_545     S
V140     V144    9.999   1_554     S
V141     V34    10.001   1_545     S
V141     V126    10.0   1_545     S
V141     V134    10.0   1_545     S
V141     V137    9.999   1_556     S
V142     V133    10.0   1_455     S
V142     V138    9.999   1_556     S
V143     V36    10.001   1_545     S
V143     V128    10.0   1_545     S
V143     V136    10.0   1_545     S
V143     V139    9.999   1_556     S
V144     V140    9.999   1_556     S
V144     V134    10.0   1_655     S
