data_wnf
_audit_creation_date              2019-12-31
_audit_creation_method            'Pymatgen'
_symmetry_space_group_name_H-M    'P1'
_symmetry_Int_Tables_number       1
loop_
_symmetry_equiv_pos_as_xyz
  x,y,z
_cell_length_a                    36.6667
_cell_length_b                    36.6667
_cell_length_c                    32.6598
_cell_angle_alpha                 90.0
_cell_angle_beta                 90.0
_cell_angle_gamma                 120.0
loop_
_atom_site_label
_atom_site_type_symbol
_atom_site_fract_x
_atom_site_fract_y
_atom_site_fract_z
V1     V     0.0909   0.9091   0.375
V2     V     0.0909   0.9091   0.875
V3     V     0.2424   0.7576   0.4583
V4     V     0.2424   0.7576   0.9583
V5     V     0.2424   0.4848   0.4583
V6     V     0.2424   0.4848   0.9583
V7     V     0.0909   0.1818   0.375
V8     V     0.0909   0.1818   0.875
V9     V     0.9091   0.0909   0.125
V10     V     0.9091   0.0909   0.625
V11     V     0.7576   0.2424   0.0417
V12     V     0.7576   0.2424   0.5417
V13     V     0.4242   0.8485   0.2083
V14     V     0.4242   0.8485   0.7083
V15     V     0.5758   0.1515   0.2917
V16     V     0.5758   0.1515   0.7917
V17     V     0.5758   0.4242   0.2917
V18     V     0.5758   0.4242   0.7917
V19     V     0.4242   0.5758   0.2083
V20     V     0.4242   0.5758   0.7083
V21     V     0.8485   0.4242   0.2917
V22     V     0.8485   0.4242   0.7917
V23     V     0.1515   0.5758   0.2083
V24     V     0.1515   0.5758   0.7083
V25     V     0.4848   0.2424   0.0417
V26     V     0.4848   0.2424   0.5417
V27     V     0.1818   0.0909   0.125
V28     V     0.1818   0.0909   0.625
V29     V     0.5152   0.7576   0.4583
V30     V     0.5152   0.7576   0.9583
V31     V     0.8182   0.9091   0.375
V32     V     0.8182   0.9091   0.875
V33     V     0.9091   0.8182   0.125
V34     V     0.9091   0.8182   0.625
V35     V     0.7576   0.5152   0.0417
V36     V     0.7576   0.5152   0.5417
loop_
_geom_bond_atom_site_label_1
_geom_bond_atom_site_label_2
_geom_bond_distance
_geom_bond_site_symmetry_2
_ccdc_geom_bond_type
V1     V3    10.0   .     S
V1     V31    10.0   1_455     S
V1     V34    10.0   1_455     S
V1     V33    10.0   1_455     S
V1     V7    10.0   1_565     S
V1     V28    10.0   1_565     S
V1     V27    10.0   1_565     S
V2     V4    10.0   .     S
V2     V32    10.0   1_455     S
V2     V33    10.0   1_456     S
V2     V34    10.0   1_455     S
V2     V8    10.0   1_565     S
V2     V27    10.0   1_566     S
V2     V28    10.0   1_565     S
V3     V23    10.0   .     S
V3     V13    10.0   .     S
V3     V29    10.0   .     S
V3     V14    10.0   .     S
V3     V24    10.0   .     S
V3     V5    10.0   .     S
V4     V24    10.0   .     S
V4     V14    10.0   .     S
V4     V30    10.0   .     S
V4     V13    10.0   1_556     S
V4     V23    10.0   1_556     S
V4     V6    10.0   .     S
V5     V7    10.0   .     S
V5     V29    10.0   .     S
V5     V19    10.0   .     S
V5     V23    10.0   .     S
V5     V24    10.0   .     S
V5     V20    10.0   .     S
V6     V8    10.0   .     S
V6     V30    10.0   .     S
V6     V20    10.0   .     S
V6     V24    10.0   .     S
V6     V23    10.0   1_556     S
V6     V19    10.0   1_556     S
V7     V31    10.0   1_445     S
V7     V10    10.0   1_455     S
V7     V1    10.0   1_545     S
V7     V28    10.0   .     S
V7     V9    10.0   1_455     S
V7     V27    10.0   .     S
V8     V32    10.0   1_445     S
V8     V9    10.0   1_456     S
V8     V2    10.0   1_545     S
V8     V27    10.0   1_556     S
V8     V10    10.0   1_455     S
V8     V28    10.0   .     S
V9     V11    10.0   .     S
V9     V8    10.0   1_654     S
V9     V27    10.0   1_655     S
V9     V33    10.0   1_545     S
V9     V32    10.0   1_544     S
V9     V7    10.0   1_655     S
V9     V31    10.0   1_545     S
V10     V12    10.0   .     S
V10     V7    10.0   1_655     S
V10     V28    10.0   1_655     S
V10     V34    10.0   1_545     S
V10     V31    10.0   1_545     S
V10     V8    10.0   1_655     S
V10     V32    10.0   1_545     S
V11     V25    10.0   .     S
V11     V21    10.0   .     S
V11     V35    10.0   .     S
V11     V22    10.0   1_554     S
V11     V16    10.0   1_554     S
V11     V15    10.0   .     S
V12     V26    10.0   .     S
V12     V22    10.0   .     S
V12     V36    10.0   .     S
V12     V21    10.0   .     S
V12     V15    10.0   .     S
V12     V16    10.0   .     S
V13     V15    10.0   1_565     S
V13     V23    10.0   .     S
V13     V4    10.0   1_554     S
V13     V19    10.0   .     S
V13     V29    10.0   .     S
V13     V30    10.0   1_554     S
V14     V16    10.0   1_565     S
V14     V24    10.0   .     S
V14     V20    10.0   .     S
V14     V30    10.0   .     S
V14     V29    10.0   .     S
V15     V13    10.0   1_545     S
V15     V17    10.0   .     S
V15     V26    10.0   .     S
V15     V25    10.0   .     S
V15     V21    10.0   .     S
V16     V14    10.0   1_545     S
V16     V18    10.0   .     S
V16     V25    10.0   1_556     S
V16     V26    10.0   .     S
V16     V22    10.0   .     S
V16     V11    10.0   1_556     S
V17     V19    10.0   .     S
V17     V21    10.0   .     S
V17     V36    10.0   .     S
V17     V26    10.0   .     S
V17     V35    10.0   .     S
V17     V25    10.0   .     S
V18     V20    10.0   .     S
V18     V22    10.0   .     S
V18     V35    10.0   1_556     S
V18     V25    10.0   1_556     S
V18     V36    10.0   .     S
V18     V26    10.0   .     S
V19     V29    10.0   .     S
V19     V30    10.0   1_554     S
V19     V23    10.0   .     S
V19     V6    10.0   1_554     S
V20     V30    10.0   .     S
V20     V29    10.0   .     S
V20     V24    10.0   .     S
V21     V23    10.0   1_655     S
V21     V36    10.0   .     S
V21     V35    10.0   .     S
V22     V24    10.0   1_655     S
V22     V35    10.0   1_556     S
V22     V36    10.0   .     S
V22     V11    10.0   1_556     S
V23     V4    10.0   1_554     S
V23     V6    10.0   1_554     S
V23     V21    10.0   1_455     S
V24     V22    10.0   1_455     S
V25     V35    10.0   .     S
V25     V18    10.0   1_554     S
V25     V16    10.0   1_554     S
V25     V27    10.0   .     S
V26     V36    10.0   .     S
V26     V28    10.0   .     S
V27     V9    10.0   1_455     S
V27     V33    10.0   1_445     S
V27     V2    10.0   1_544     S
V27     V8    10.0   1_554     S
V27     V1    10.0   1_545     S
V28     V10    10.0   1_455     S
V28     V34    10.0   1_445     S
V28     V1    10.0   1_545     S
V28     V2    10.0   1_545     S
V29     V31    10.0   .     S
V30     V19    10.0   1_556     S
V30     V13    10.0   1_556     S
V30     V32    10.0   .     S
V31     V7    10.0   1_665     S
V31     V34    10.0   .     S
V31     V33    10.0   .     S
V31     V1    10.0   1_655     S
V31     V10    10.0   1_565     S
V31     V9    10.0   1_565     S
V32     V8    10.0   1_665     S
V32     V33    10.0   1_556     S
V32     V34    10.0   .     S
V32     V2    10.0   1_655     S
V32     V9    10.0   1_566     S
V32     V10    10.0   1_565     S
V33     V9    10.0   1_565     S
V33     V32    10.0   1_554     S
V33     V27    10.0   1_665     S
V33     V2    10.0   1_654     S
V33     V1    10.0   1_655     S
V33     V35    10.0   .     S
V34     V10    10.0   1_565     S
V34     V28    10.0   1_665     S
V34     V1    10.0   1_655     S
V34     V2    10.0   1_655     S
V34     V36    10.0   .     S
V35     V18    10.0   1_554     S
V35     V22    10.0   1_554     S
