data_wnh
_audit_creation_date              2019-12-31
_audit_creation_method            'Pymatgen'
_symmetry_space_group_name_H-M    'P1'
_symmetry_Int_Tables_number       1
loop_
_symmetry_equiv_pos_as_xyz
  x,y,z
_cell_length_a                    48.0694
_cell_length_b                    48.0694
_cell_length_c                    37.8216
_cell_angle_alpha                 90.0
_cell_angle_beta                 90.0
_cell_angle_gamma                 120.0
loop_
_atom_site_label
_atom_site_type_symbol
_atom_site_fract_x
_atom_site_fract_y
_atom_site_fract_z
V1     V     0.2515   0.4353   0.1116
V2     V     0.2515   0.4353   0.6116
V3     V     0.1019   0.5848   0.3051
V4     V     0.1019   0.5848   0.8051
V5     V     0.1838   0.4353   0.3616
V6     V     0.1838   0.4353   0.8616
V7     V     0.4829   0.5848   0.0551
V8     V     0.4829   0.5848   0.5551
V9     V     0.1019   0.5171   0.0551
V10     V     0.1019   0.5171   0.5551
V11     V     0.2515   0.8162   0.3616
V12     V     0.2515   0.8162   0.8616
V13     V     0.4829   0.8981   0.3051
V14     V     0.4829   0.8981   0.8051
V15     V     0.1838   0.7485   0.1116
V16     V     0.1838   0.7485   0.6116
V17     V     0.4152   0.5171   0.3051
V18     V     0.4152   0.5171   0.8051
V19     V     0.5647   0.8162   0.1116
V20     V     0.5647   0.8162   0.6116
V21     V     0.5647   0.7485   0.3616
V22     V     0.5647   0.7485   0.8616
V23     V     0.4152   0.8981   0.0551
V24     V     0.4152   0.8981   0.5551
V25     V     0.8504   0.0818   0.2782
V26     V     0.8504   0.0818   0.7782
V27     V     0.1496   0.2314   0.4718
V28     V     0.1496   0.2314   0.9718
V29     V     0.7686   0.9182   0.4718
V30     V     0.7686   0.9182   0.9718
V31     V     0.9182   0.7686   0.2782
V32     V     0.9182   0.7686   0.7782
V33     V     0.9182   0.1495   0.0282
V34     V     0.9182   0.1495   0.5282
V35     V     0.7686   0.8504   0.2218
V36     V     0.7686   0.8504   0.7218
V37     V     0.1496   0.9182   0.2218
V38     V     0.1496   0.9182   0.7218
V39     V     0.8504   0.7686   0.0282
V40     V     0.8504   0.7686   0.5282
V41     V     0.0818   0.2314   0.2218
V42     V     0.0818   0.2314   0.7218
V43     V     0.2314   0.0818   0.0282
V44     V     0.2314   0.0818   0.5282
V45     V     0.2314   0.1495   0.2782
V46     V     0.2314   0.1495   0.7782
V47     V     0.0818   0.8504   0.4718
V48     V     0.0818   0.8504   0.9718
V49     V     0.5171   0.1019   0.1949
V50     V     0.5171   0.1019   0.6949
V51     V     0.8162   0.2515   0.3884
V52     V     0.8162   0.2515   0.8884
V53     V     0.5171   0.4152   0.4449
V54     V     0.5171   0.4152   0.9449
V55     V     0.8162   0.5647   0.1384
V56     V     0.8162   0.5647   0.6384
V57     V     0.5848   0.4829   0.1949
V58     V     0.5848   0.4829   0.6949
V59     V     0.4353   0.1838   0.3884
V60     V     0.4353   0.1838   0.8884
V61     V     0.4353   0.2515   0.1384
V62     V     0.4353   0.2515   0.6384
V63     V     0.5848   0.1019   0.4449
V64     V     0.5848   0.1019   0.9449
V65     V     0.8981   0.4829   0.4449
V66     V     0.8981   0.4829   0.9449
V67     V     0.7485   0.1838   0.1384
V68     V     0.7485   0.1838   0.6384
V69     V     0.8981   0.4152   0.1949
V70     V     0.8981   0.4152   0.6949
V71     V     0.7485   0.5647   0.3884
V72     V     0.7485   0.5647   0.8884
loop_
_geom_bond_atom_site_label_1
_geom_bond_atom_site_label_2
_geom_bond_distance
_geom_bond_site_symmetry_2
_ccdc_geom_bond_type
V1     V28    10.0   1_554     S
V1     V41    10.0   .     S
V1     V9    10.0   .     S
V1     V6    10.0   1_554     S
V1     V5    10.0   .     S
V1     V7    10.0   .     S
V1     V17    10.0   .     S
V2     V27    10.0   .     S
V2     V42    10.0   .     S
V2     V10    10.0   .     S
V2     V5    10.0   .     S
V2     V6    10.0   .     S
V2     V8    10.0   .     S
V2     V18    10.0   .     S
V3     V69    10.0   1_455     S
V3     V65    10.0   1_455     S
V3     V5    10.0   .     S
V3     V10    10.0   .     S
V3     V11    10.0   .     S
V3     V9    10.0   .     S
V3     V15    10.0   .     S
V4     V70    10.0   1_455     S
V4     V66    10.0   1_455     S
V4     V6    10.0   .     S
V4     V9    10.0   1_556     S
V4     V12    10.0   .     S
V4     V10    10.0   .     S
V4     V16    10.0   .     S
V5     V27    10.0   .     S
V5     V41    10.0   .     S
V5     V10    10.0   .     S
V5     V17    10.0   .     S
V6     V28    10.0   .     S
V6     V42    10.0   .     S
V6     V1    10.0   1_556     S
V6     V9    10.0   1_556     S
V6     V18    10.0   .     S
V7     V54    10.0   1_554     S
V7     V57    10.0   .     S
V7     V17    10.0   .     S
V7     V19    10.0   .     S
V7     V18    10.0   1_554     S
V7     V22    10.0   1_554     S
V8     V53    10.0   .     S
V8     V58    10.0   .     S
V8     V18    10.0   .     S
V8     V20    10.0   .     S
V8     V17    10.0   .     S
V8     V21    10.0   .     S
V9     V69    10.0   1_455     S
V9     V66    10.0   1_454     S
V9     V4    10.0   1_554     S
V9     V6    10.0   1_554     S
V9     V15    10.0   .     S
V10     V70    10.0   1_455     S
V10     V65    10.0   1_455     S
V10     V16    10.0   .     S
V11     V47    10.0   .     S
V11     V37    10.0   .     S
V11     V15    10.0   .     S
V11     V16    10.0   .     S
V11     V13    10.0   .     S
V11     V24    10.0   .     S
V12     V48    10.0   .     S
V12     V38    10.0   .     S
V12     V16    10.0   .     S
V12     V15    10.0   1_556     S
V12     V14    10.0   .     S
V12     V23    10.0   1_556     S
V13     V24    10.0   .     S
V13     V21    10.0   .     S
V13     V23    10.0   .     S
V13     V19    10.0   .     S
V13     V63    10.0   1_565     S
V13     V49    10.0   1_565     S
V14     V23    10.0   1_556     S
V14     V22    10.0   .     S
V14     V24    10.0   .     S
V14     V20    10.0   .     S
V14     V64    10.0   1_565     S
V14     V50    10.0   1_565     S
V15     V48    10.0   1_554     S
V15     V37    10.0   .     S
V15     V23    10.0   .     S
V15     V12    10.0   1_554     S
V16     V47    10.0   .     S
V16     V38    10.0   .     S
V16     V24    10.0   .     S
V17     V53    10.0   .     S
V17     V57    10.0   .     S
V17     V21    10.0   .     S
V18     V54    10.0   .     S
V18     V58    10.0   .     S
V18     V22    10.0   .     S
V18     V7    10.0   1_556     S
V19     V22    10.0   1_554     S
V19     V21    10.0   .     S
V19     V23    10.0   .     S
V19     V35    10.0   .     S
V19     V30    10.0   1_554     S
V20     V21    10.0   .     S
V20     V22    10.0   .     S
V20     V24    10.0   .     S
V20     V36    10.0   .     S
V20     V29    10.0   .     S
V21     V35    10.0   .     S
V21     V29    10.0   .     S
V22     V19    10.0   1_556     S
V22     V7    10.0   1_556     S
V22     V36    10.0   .     S
V22     V30    10.0   .     S
V23     V14    10.0   1_554     S
V23     V12    10.0   1_554     S
V23     V64    10.0   1_564     S
V23     V49    10.0   1_565     S
V24     V63    10.0   1_565     S
V24     V50    10.0   1_565     S
V25     V51    10.0   .     S
V25     V67    10.0   .     S
V25     V41    10.0   1_655     S
V25     V33    10.0   .     S
V25     V34    10.0   .     S
V25     V35    10.0   1_545     S
V25     V29    10.0   1_545     S
V26     V52    10.0   .     S
V26     V68    10.0   .     S
V26     V42    10.0   1_655     S
V26     V34    10.0   .     S
V26     V33    10.0   1_556     S
V26     V36    10.0   1_545     S
V26     V30    10.0   1_545     S
V27     V34    10.0   1_455     S
V27     V42    10.0   .     S
V27     V41    10.0   .     S
V27     V44    10.0   .     S
V27     V45    10.0   .     S
V28     V1    10.0   1_556     S
V28     V33    10.0   1_456     S
V28     V41    10.0   1_556     S
V28     V42    10.0   .     S
V28     V43    10.0   1_556     S
V28     V46    10.0   .     S
V29     V40    10.0   .     S
V29     V36    10.0   .     S
V29     V34    10.0   1_565     S
V29     V35    10.0   .     S
V29     V25    10.0   1_565     S
V30     V19    10.0   1_556     S
V30     V39    10.0   1_556     S
V30     V35    10.0   1_556     S
V30     V33    10.0   1_566     S
V30     V36    10.0   .     S
V30     V26    10.0   1_565     S
V31     V55    10.0   .     S
V31     V71    10.0   .     S
V31     V35    10.0   .     S
V31     V39    10.0   .     S
V31     V37    10.0   1_655     S
V31     V40    10.0   .     S
V31     V47    10.0   1_655     S
V32     V56    10.0   .     S
V32     V72    10.0   .     S
V32     V36    10.0   .     S
V32     V40    10.0   .     S
V32     V38    10.0   1_655     S
V32     V39    10.0   1_556     S
V32     V48    10.0   1_655     S
V33     V52    10.0   1_554     S
V33     V67    10.0   .     S
V33     V28    10.0   1_654     S
V33     V41    10.0   1_655     S
V33     V30    10.0   1_544     S
V33     V26    10.0   1_554     S
V34     V51    10.0   .     S
V34     V68    10.0   .     S
V34     V27    10.0   1_655     S
V34     V42    10.0   1_655     S
V34     V29    10.0   1_545     S
V35     V30    10.0   1_554     S
V35     V39    10.0   .     S
V35     V25    10.0   1_565     S
V36     V40    10.0   .     S
V36     V26    10.0   1_565     S
V37     V31    10.0   1_455     S
V37     V47    10.0   .     S
V37     V45    10.0   1_565     S
V37     V48    10.0   1_554     S
V37     V43    10.0   1_565     S
V38     V32    10.0   1_455     S
V38     V48    10.0   .     S
V38     V46    10.0   1_565     S
V38     V47    10.0   .     S
V38     V44    10.0   1_565     S
V39     V55    10.0   .     S
V39     V72    10.0   1_554     S
V39     V30    10.0   1_554     S
V39     V48    10.0   1_654     S
V39     V32    10.0   1_554     S
V40     V56    10.0   .     S
V40     V71    10.0   .     S
V40     V47    10.0   1_655     S
V41     V28    10.0   1_554     S
V41     V25    10.0   1_455     S
V41     V33    10.0   1_455     S
V41     V45    10.0   .     S
V42     V26    10.0   1_455     S
V42     V34    10.0   1_455     S
V42     V46    10.0   .     S
V43     V28    10.0   1_554     S
V43     V46    10.0   1_554     S
V43     V45    10.0   .     S
V43     V48    10.0   1_544     S
V43     V37    10.0   1_545     S
V43     V60    10.0   1_554     S
V43     V61    10.0   .     S
V44     V45    10.0   .     S
V44     V46    10.0   .     S
V44     V47    10.0   1_545     S
V44     V38    10.0   1_545     S
V44     V59    10.0   .     S
V44     V62    10.0   .     S
V45     V37    10.0   1_545     S
V45     V59    10.0   .     S
V45     V61    10.0   .     S
V46     V43    10.0   1_556     S
V46     V38    10.0   1_545     S
V46     V60    10.0   .     S
V46     V62    10.0   .     S
V47     V40    10.0   1_455     S
V47     V31    10.0   1_455     S
V47     V44    10.0   1_565     S
V48     V15    10.0   1_556     S
V48     V39    10.0   1_456     S
V48     V32    10.0   1_455     S
V48     V43    10.0   1_566     S
V48     V37    10.0   1_556     S
V49     V23    10.0   1_545     S
V49     V13    10.0   1_545     S
V49     V67    10.0   .     S
V49     V64    10.0   1_554     S
V49     V63    10.0   .     S
V49     V61    10.0   .     S
V49     V59    10.0   .     S
V50     V24    10.0   1_545     S
V50     V14    10.0   1_545     S
V50     V68    10.0   .     S
V50     V63    10.0   .     S
V50     V64    10.0   .     S
V50     V62    10.0   .     S
V50     V60    10.0   .     S
V51     V63    10.0   .     S
V51     V68    10.0   .     S
V51     V65    10.0   .     S
V51     V67    10.0   .     S
V51     V69    10.0   .     S
V52     V33    10.0   1_556     S
V52     V64    10.0   .     S
V52     V67    10.0   1_556     S
V52     V66    10.0   .     S
V52     V68    10.0   .     S
V52     V70    10.0   .     S
V53     V71    10.0   .     S
V53     V57    10.0   .     S
V53     V58    10.0   .     S
V53     V59    10.0   .     S
V53     V62    10.0   .     S
V54     V7    10.0   1_556     S
V54     V72    10.0   .     S
V54     V58    10.0   .     S
V54     V57    10.0   1_556     S
V54     V60    10.0   .     S
V54     V61    10.0   1_556     S
V55     V57    10.0   .     S
V55     V71    10.0   .     S
V55     V72    10.0   1_554     S
V55     V69    10.0   .     S
V55     V66    10.0   1_554     S
V56     V58    10.0   .     S
V56     V72    10.0   .     S
V56     V71    10.0   .     S
V56     V70    10.0   .     S
V56     V65    10.0   .     S
V57     V71    10.0   .     S
V57     V61    10.0   .     S
V57     V54    10.0   1_554     S
V58     V72    10.0   .     S
V58     V62    10.0   .     S
V59     V62    10.0   .     S
V59     V63    10.0   .     S
V59     V61    10.0   .     S
V60     V43    10.0   1_556     S
V60     V61    10.0   1_556     S
V60     V64    10.0   .     S
V60     V62    10.0   .     S
V61     V60    10.0   1_554     S
V61     V54    10.0   1_554     S
V63     V24    10.0   1_545     S
V63     V13    10.0   1_545     S
V63     V68    10.0   .     S
V64     V23    10.0   1_546     S
V64     V14    10.0   1_545     S
V64     V49    10.0   1_556     S
V64     V67    10.0   1_556     S
V65     V3    10.0   1_655     S
V65     V10    10.0   1_655     S
V65     V69    10.0   .     S
V65     V71    10.0   .     S
V65     V70    10.0   .     S
V66     V4    10.0   1_655     S
V66     V9    10.0   1_656     S
V66     V70    10.0   .     S
V66     V72    10.0   .     S
V66     V69    10.0   1_556     S
V66     V55    10.0   1_556     S
V67     V52    10.0   1_554     S
V67     V64    10.0   1_554     S
V67     V69    10.0   .     S
V68     V70    10.0   .     S
V69     V3    10.0   1_655     S
V69     V9    10.0   1_655     S
V69     V66    10.0   1_554     S
V70     V4    10.0   1_655     S
V70     V10    10.0   1_655     S
V72     V39    10.0   1_556     S
V72     V55    10.0   1_556     S
