data_wnj
_audit_creation_date              2019-12-31
_audit_creation_method            'Pymatgen'
_symmetry_space_group_name_H-M    'P1'
_symmetry_Int_Tables_number       1
loop_
_symmetry_equiv_pos_as_xyz
  x,y,z
_cell_length_a                    37.274
_cell_length_b                    37.274
_cell_length_c                    40.1002
_cell_angle_alpha                 90.0
_cell_angle_beta                 90.0
_cell_angle_gamma                 120.0
loop_
_atom_site_label
_atom_site_type_symbol
_atom_site_fract_x
_atom_site_fract_y
_atom_site_fract_z
V1     V     0.0345   0.2544   0.0382
V2     V     0.0345   0.2544   0.5382
V3     V     0.0345   0.7544   0.0382
V4     V     0.0345   0.7544   0.5382
V5     V     0.5344   0.2544   0.0382
V6     V     0.5344   0.2544   0.5382
V7     V     0.5344   0.7544   0.0382
V8     V     0.5344   0.7544   0.5382
V9     V     0.2544   0.0344   0.4618
V10     V     0.2544   0.0344   0.9618
V11     V     0.2544   0.5344   0.4618
V12     V     0.2544   0.5344   0.9618
V13     V     0.7544   0.0344   0.4618
V14     V     0.7544   0.0344   0.9618
V15     V     0.7544   0.5344   0.4618
V16     V     0.7544   0.5344   0.9618
V17     V     0.2801   0.2456   0.1284
V18     V     0.2801   0.2456   0.6284
V19     V     0.2801   0.7456   0.1284
V20     V     0.2801   0.7456   0.6284
V21     V     0.7801   0.2456   0.1284
V22     V     0.7801   0.2456   0.6284
V23     V     0.7801   0.7456   0.1284
V24     V     0.7801   0.7456   0.6284
V25     V     0.2199   0.4656   0.2049
V26     V     0.2199   0.4656   0.7049
V27     V     0.2199   0.9656   0.2049
V28     V     0.2199   0.9656   0.7049
V29     V     0.7199   0.4656   0.2049
V30     V     0.7199   0.4656   0.7049
V31     V     0.7199   0.9656   0.2049
V32     V     0.7199   0.9656   0.7049
V33     V     0.2456   0.2801   0.3716
V34     V     0.2456   0.2801   0.8716
V35     V     0.2456   0.7801   0.3716
V36     V     0.2456   0.7801   0.8716
V37     V     0.7456   0.2801   0.3716
V38     V     0.7456   0.2801   0.8716
V39     V     0.7456   0.7801   0.3716
V40     V     0.7456   0.7801   0.8716
V41     V     0.4656   0.2199   0.2951
V42     V     0.4656   0.2199   0.7951
V43     V     0.4656   0.7199   0.2951
V44     V     0.4656   0.7199   0.7951
V45     V     0.9656   0.2199   0.2951
V46     V     0.9656   0.2199   0.7951
V47     V     0.9656   0.7199   0.2951
V48     V     0.9656   0.7199   0.7951
loop_
_geom_bond_atom_site_label_1
_geom_bond_atom_site_label_2
_geom_bond_distance
_geom_bond_site_symmetry_2
_ccdc_geom_bond_type
V1     V21    10.0   1_455     S
V1     V14    10.0   1_454     S
V1     V25    10.0   .     S
V1     V12    10.0   1_554     S
V1     V17    10.0   .     S
V1     V34    10.0   1_554     S
V1     V46    10.0   1_454     S
V2     V22    10.0   1_455     S
V2     V13    10.0   1_455     S
V2     V26    10.0   .     S
V2     V11    10.0   .     S
V2     V18    10.0   .     S
V2     V33    10.0   .     S
V2     V45    10.0   1_455     S
V3     V23    10.0   1_455     S
V3     V16    10.0   1_454     S
V3     V27    10.0   .     S
V3     V10    10.0   1_564     S
V3     V19    10.0   .     S
V3     V36    10.0   1_554     S
V3     V48    10.0   1_454     S
V4     V24    10.0   1_455     S
V4     V15    10.0   1_455     S
V4     V28    10.0   .     S
V4     V9    10.0   1_565     S
V4     V20    10.0   .     S
V4     V35    10.0   .     S
V4     V47    10.0   1_455     S
V5     V17    10.0   .     S
V5     V10    10.0   1_554     S
V5     V29    10.0   .     S
V5     V16    10.0   1_554     S
V5     V21    10.0   .     S
V5     V38    10.0   1_554     S
V5     V42    10.0   1_554     S
V6     V18    10.0   .     S
V6     V9    10.0   .     S
V6     V30    10.0   .     S
V6     V15    10.0   .     S
V6     V22    10.0   .     S
V6     V37    10.0   .     S
V6     V41    10.0   .     S
V7     V19    10.0   .     S
V7     V12    10.0   1_554     S
V7     V31    10.0   .     S
V7     V14    10.0   1_564     S
V7     V23    10.0   .     S
V7     V40    10.0   1_554     S
V7     V44    10.0   1_554     S
V8     V20    10.0   .     S
V8     V11    10.0   .     S
V8     V32    10.0   .     S
V8     V13    10.0   1_565     S
V8     V24    10.0   .     S
V8     V39    10.0   .     S
V8     V43    10.0   .     S
V9     V28    10.0   1_545     S
V9     V35    10.0   1_545     S
V9     V4    10.0   1_545     S
V9     V41    10.0   .     S
V9     V18    10.0   .     S
V9     V33    10.0   .     S
V10     V5    10.0   1_556     S
V10     V27    10.0   1_546     S
V10     V36    10.0   1_545     S
V10     V3    10.0   1_546     S
V10     V42    10.0   .     S
V10     V17    10.0   1_556     S
V10     V34    10.0   .     S
V11     V26    10.0   .     S
V11     V33    10.0   .     S
V11     V43    10.0   .     S
V11     V20    10.0   .     S
V11     V35    10.0   .     S
V12     V7    10.0   1_556     S
V12     V25    10.0   1_556     S
V12     V34    10.0   .     S
V12     V1    10.0   1_556     S
V12     V44    10.0   .     S
V12     V19    10.0   1_556     S
V12     V36    10.0   .     S
V13     V2    10.0   1_655     S
V13     V32    10.0   1_545     S
V13     V39    10.0   1_545     S
V13     V8    10.0   1_545     S
V13     V45    10.0   .     S
V13     V22    10.0   .     S
V13     V37    10.0   .     S
V14     V1    10.0   1_656     S
V14     V31    10.0   1_546     S
V14     V40    10.0   1_545     S
V14     V7    10.0   1_546     S
V14     V46    10.0   .     S
V14     V21    10.0   1_556     S
V14     V38    10.0   .     S
V15     V4    10.0   1_655     S
V15     V30    10.0   .     S
V15     V37    10.0   .     S
V15     V47    10.0   .     S
V15     V24    10.0   .     S
V15     V39    10.0   .     S
V16     V3    10.0   1_656     S
V16     V29    10.0   1_556     S
V16     V38    10.0   .     S
V16     V5    10.0   1_556     S
V16     V48    10.0   .     S
V16     V23    10.0   1_556     S
V16     V40    10.0   .     S
V17     V33    10.0   .     S
V17     V25    10.0   .     S
V17     V10    10.0   1_554     S
V17     V27    10.0   1_545     S
V17     V41    10.0   .     S
V18     V34    10.0   .     S
V18     V26    10.0   .     S
V18     V28    10.0   1_545     S
V18     V42    10.0   .     S
V19     V35    10.0   .     S
V19     V27    10.0   .     S
V19     V12    10.0   1_554     S
V19     V25    10.0   .     S
V19     V43    10.0   .     S
V20     V36    10.0   .     S
V20     V28    10.0   .     S
V20     V26    10.0   .     S
V20     V44    10.0   .     S
V21     V1    10.0   1_655     S
V21     V37    10.0   .     S
V21     V29    10.0   .     S
V21     V14    10.0   1_554     S
V21     V31    10.0   1_545     S
V21     V45    10.0   .     S
V22     V2    10.0   1_655     S
V22     V38    10.0   .     S
V22     V30    10.0   .     S
V22     V32    10.0   1_545     S
V22     V46    10.0   .     S
V23     V3    10.0   1_655     S
V23     V39    10.0   .     S
V23     V31    10.0   .     S
V23     V16    10.0   1_554     S
V23     V29    10.0   .     S
V23     V47    10.0   .     S
V24     V4    10.0   1_655     S
V24     V40    10.0   .     S
V24     V32    10.0   .     S
V24     V30    10.0   .     S
V24     V48    10.0   .     S
V25     V12    10.0   1_554     S
V25     V43    10.0   .     S
V25     V33    10.0   .     S
V25     V45    10.0   1_455     S
V26     V44    10.0   .     S
V26     V34    10.0   .     S
V26     V46    10.0   1_455     S
V27     V10    10.0   1_564     S
V27     V41    10.0   1_565     S
V27     V17    10.0   1_565     S
V27     V35    10.0   .     S
V27     V47    10.0   1_455     S
V28     V9    10.0   1_565     S
V28     V42    10.0   1_565     S
V28     V18    10.0   1_565     S
V28     V36    10.0   .     S
V28     V48    10.0   1_455     S
V29     V16    10.0   1_554     S
V29     V47    10.0   .     S
V29     V37    10.0   .     S
V29     V41    10.0   .     S
V30     V48    10.0   .     S
V30     V38    10.0   .     S
V30     V42    10.0   .     S
V31     V14    10.0   1_564     S
V31     V45    10.0   1_565     S
V31     V21    10.0   1_565     S
V31     V39    10.0   .     S
V31     V43    10.0   .     S
V32     V13    10.0   1_565     S
V32     V46    10.0   1_565     S
V32     V22    10.0   1_565     S
V32     V40    10.0   .     S
V32     V44    10.0   .     S
V33     V41    10.0   .     S
V33     V45    10.0   1_455     S
V34     V1    10.0   1_556     S
V34     V42    10.0   .     S
V34     V46    10.0   1_455     S
V35     V9    10.0   1_565     S
V35     V43    10.0   .     S
V35     V47    10.0   1_455     S
V36     V10    10.0   1_565     S
V36     V3    10.0   1_556     S
V36     V44    10.0   .     S
V36     V48    10.0   1_455     S
V37     V45    10.0   .     S
V37     V41    10.0   .     S
V38     V5    10.0   1_556     S
V38     V46    10.0   .     S
V38     V42    10.0   .     S
V39     V13    10.0   1_565     S
V39     V47    10.0   .     S
V39     V43    10.0   .     S
V40     V14    10.0   1_565     S
V40     V7    10.0   1_556     S
V40     V48    10.0   .     S
V40     V44    10.0   .     S
V41     V27    10.0   1_545     S
V42     V28    10.0   1_545     S
V42     V5    10.0   1_556     S
V44     V7    10.0   1_556     S
V45     V31    10.0   1_545     S
V45     V2    10.0   1_655     S
V45     V25    10.0   1_655     S
V45     V33    10.0   1_655     S
V46     V32    10.0   1_545     S
V46     V1    10.0   1_656     S
V46     V26    10.0   1_655     S
V46     V34    10.0   1_655     S
V47     V4    10.0   1_655     S
V47     V27    10.0   1_655     S
V47     V35    10.0   1_655     S
V48     V3    10.0   1_656     S
V48     V28    10.0   1_655     S
V48     V36    10.0   1_655     S
