data_wnk
_audit_creation_date              2019-12-31
_audit_creation_method            'Pymatgen'
_symmetry_space_group_name_H-M    'P1'
_symmetry_Int_Tables_number       1
loop_
_symmetry_equiv_pos_as_xyz
  x,y,z
_cell_length_a                    32.0814
_cell_length_b                    32.0814
_cell_length_c                    28.585
_cell_angle_alpha                 90.0
_cell_angle_beta                 90.0
_cell_angle_gamma                 120.0
loop_
_atom_site_label
_atom_site_type_symbol
_atom_site_fract_x
_atom_site_fract_y
_atom_site_fract_z
V1     V     0.3333   0.2213   0.7673
V2     V     0.3333   0.7213   0.7673
V3     V     0.8333   0.2213   0.7673
V4     V     0.8333   0.7213   0.7673
V5     V     0.2213   0.3333   0.2327
V6     V     0.2213   0.8333   0.2327
V7     V     0.7213   0.3333   0.2327
V8     V     0.7213   0.8333   0.2327
V9     V     0.1667   0.3879   0.8993
V10     V     0.1667   0.888   0.8993
V11     V     0.6667   0.3879   0.8993
V12     V     0.6667   0.888   0.8993
V13     V     0.2787   0.112   0.434
V14     V     0.2787   0.612   0.434
V15     V     0.7787   0.112   0.434
V16     V     0.7787   0.612   0.434
V17     V     0.388   0.1667   0.1007
V18     V     0.388   0.6667   0.1007
V19     V     0.888   0.1667   0.1007
V20     V     0.888   0.6667   0.1007
V21     V     0.112   0.2787   0.566
V22     V     0.1121   0.7787   0.566
V23     V     0.612   0.2787   0.566
V24     V     0.612   0.7787   0.566
loop_
_geom_bond_atom_site_label_1
_geom_bond_atom_site_label_2
_geom_bond_distance
_geom_bond_site_symmetry_2
_ccdc_geom_bond_type
V1     V13    10.0   .     S
V1     V21    10.0   .     S
V1     V17    10.0   1_556     S
V1     V23    10.0   .     S
V1     V11    10.0   .     S
V1     V9    10.0   .     S
V1     V10    10.0   1_545     S
V2     V14    10.0   .     S
V2     V22    10.0   .     S
V2     V18    10.0   1_556     S
V2     V24    10.0   .     S
V2     V12    10.0   .     S
V2     V10    10.0   .     S
V2     V9    10.0   .     S
V3     V15    10.0   .     S
V3     V23    10.0   .     S
V3     V19    10.0   1_556     S
V3     V21    10.0   1_655     S
V3     V9    10.0   1_655     S
V3     V11    10.0   .     S
V3     V12    10.0   1_545     S
V4     V16    10.0   .     S
V4     V24    10.0   .     S
V4     V20    10.0   1_556     S
V4     V22    10.0   1_655     S
V4     V10    10.0   1_655     S
V4     V12    10.0   .     S
V4     V11    10.0   .     S
V5     V21    10.0   .     S
V5     V13    10.0   .     S
V5     V9    10.0   1_554     S
V5     V14    10.0   .     S
V5     V18    10.0   .     S
V5     V17    10.0   .     S
V5     V19    10.0   1_455     S
V6     V22    10.0   .     S
V6     V14    10.0   .     S
V6     V10    10.0   1_554     S
V6     V13    10.0   1_565     S
V6     V17    10.0   1_565     S
V6     V18    10.0   .     S
V6     V20    10.0   1_455     S
V7     V23    10.0   .     S
V7     V15    10.0   .     S
V7     V11    10.0   1_554     S
V7     V16    10.0   .     S
V7     V20    10.0   .     S
V7     V19    10.0   .     S
V7     V17    10.0   .     S
V8     V24    10.0   .     S
V8     V16    10.0   .     S
V8     V12    10.0   1_554     S
V8     V15    10.0   1_565     S
V8     V19    10.0   1_565     S
V8     V20    10.0   .     S
V8     V18    10.0   .     S
V9     V5    10.0   1_556     S
V9     V18    10.0   1_556     S
V9     V19    10.0   1_456     S
V9     V21    10.0   .     S
V9     V3    10.0   1_455     S
V10     V6    10.0   1_556     S
V10     V17    10.0   1_566     S
V10     V20    10.0   1_456     S
V10     V22    10.0   .     S
V10     V4    10.0   1_455     S
V10     V1    10.0   1_565     S
V11     V7    10.0   1_556     S
V11     V20    10.0   1_556     S
V11     V17    10.0   1_556     S
V11     V23    10.0   .     S
V12     V8    10.0   1_556     S
V12     V19    10.0   1_566     S
V12     V18    10.0   1_556     S
V12     V24    10.0   .     S
V12     V3    10.0   1_565     S
V13     V21    10.0   .     S
V13     V17    10.0   .     S
V13     V6    10.0   1_545     S
V13     V23    10.0   .     S
V13     V22    10.0   1_545     S
V14     V22    10.0   .     S
V14     V18    10.0   .     S
V14     V24    10.0   .     S
V14     V21    10.0   .     S
V15     V23    10.0   .     S
V15     V19    10.0   .     S
V15     V8    10.0   1_545     S
V15     V21    10.0   1_655     S
V15     V24    10.0   1_545     S
V16     V24    10.0   .     S
V16     V20    10.0   .     S
V16     V22    10.0   1_655     S
V16     V23    10.0   .     S
V17     V10    10.0   1_544     S
V17     V6    10.0   1_545     S
V17     V1    10.0   1_554     S
V17     V11    10.0   1_554     S
V18     V9    10.0   1_554     S
V18     V2    10.0   1_554     S
V18     V12    10.0   1_554     S
V19     V12    10.0   1_544     S
V19     V8    10.0   1_545     S
V19     V3    10.0   1_554     S
V19     V9    10.0   1_654     S
V19     V5    10.0   1_655     S
V20     V11    10.0   1_554     S
V20     V4    10.0   1_554     S
V20     V10    10.0   1_654     S
V20     V6    10.0   1_655     S
V21     V3    10.0   1_455     S
V21     V15    10.0   1_455     S
V22     V4    10.0   1_455     S
V22     V16    10.0   1_455     S
V22     V13    10.0   1_565     S
V24     V15    10.0   1_565     S
