data_wnl
_audit_creation_date              2019-12-31
_audit_creation_method            'Pymatgen'
_symmetry_space_group_name_H-M    'P1'
_symmetry_Int_Tables_number       1
loop_
_symmetry_equiv_pos_as_xyz
  x,y,z
_cell_length_a                    43.3806
_cell_length_b                    43.3806
_cell_length_c                    30.0
_cell_angle_alpha                 90.0
_cell_angle_beta                 90.0
_cell_angle_gamma                 120.0
loop_
_atom_site_label
_atom_site_type_symbol
_atom_site_fract_x
_atom_site_fract_y
_atom_site_fract_z
V1     V     0.8847   0.3426   0.3056
V2     V     0.8847   0.3426   0.6389
V3     V     0.8847   0.3426   0.9722
V4     V     0.6574   0.1153   0.25
V5     V     0.6574   0.1153   0.5833
V6     V     0.6574   0.1153   0.9167
V7     V     0.1153   0.4578   0.1389
V8     V     0.1153   0.4578   0.4722
V9     V     0.1153   0.4578   0.8056
V10     V     0.3426   0.4578   0.1944
V11     V     0.3426   0.4578   0.5278
V12     V     0.3426   0.4578   0.8611
V13     V     0.4578   0.1153   0.0833
V14     V     0.4578   0.1153   0.4167
V15     V     0.4578   0.1153   0.75
V16     V     0.4578   0.3426   0.0278
V17     V     0.4578   0.3426   0.3611
V18     V     0.4578   0.3426   0.6944
V19     V     0.8847   0.5422   0.1389
V20     V     0.8847   0.5422   0.4722
V21     V     0.8847   0.5422   0.8056
V22     V     0.6575   0.5422   0.1944
V23     V     0.6575   0.5422   0.5278
V24     V     0.6575   0.5422   0.8611
V25     V     0.5422   0.8847   0.0833
V26     V     0.5422   0.8847   0.4167
V27     V     0.5422   0.8847   0.75
V28     V     0.5422   0.6574   0.0278
V29     V     0.5422   0.6574   0.3611
V30     V     0.5422   0.6574   0.6944
V31     V     0.3426   0.8847   0.25
V32     V     0.3426   0.8847   0.5833
V33     V     0.3426   0.8847   0.9167
V34     V     0.1153   0.6574   0.3056
V35     V     0.1153   0.6574   0.6389
V36     V     0.1153   0.6574   0.9722
loop_
_geom_bond_atom_site_label_1
_geom_bond_atom_site_label_2
_geom_bond_distance
_geom_bond_site_symmetry_2
_ccdc_geom_bond_type
V1     V19    10.0   .     S
V1     V20    10.0   .     S
V1     V4    10.0   .     S
V1     V3    10.0   1_554     S
V1     V2    10.0   .     S
V1     V8    10.0   1_655     S
V1     V7    10.0   1_655     S
V2     V20    10.0   .     S
V2     V21    10.0   .     S
V2     V5    10.0   .     S
V2     V3    10.0   .     S
V2     V9    10.0   1_655     S
V2     V8    10.0   1_655     S
V3     V21    10.0   .     S
V3     V19    10.0   1_556     S
V3     V6    10.0   .     S
V3     V1    10.0   1_556     S
V3     V7    10.0   1_656     S
V3     V9    10.0   1_655     S
V4     V14    10.0   .     S
V4     V13    10.0   .     S
V4     V6    10.0   1_554     S
V4     V5    10.0   .     S
V4     V25    10.0   1_545     S
V4     V26    10.0   1_545     S
V5     V15    10.0   .     S
V5     V14    10.0   .     S
V5     V6    10.0   .     S
V5     V26    10.0   1_545     S
V5     V27    10.0   1_545     S
V6     V13    10.0   1_556     S
V6     V15    10.0   .     S
V6     V4    10.0   1_556     S
V6     V27    10.0   1_545     S
V6     V25    10.0   1_546     S
V7     V34    10.0   .     S
V7     V36    10.0   1_554     S
V7     V3    10.0   1_454     S
V7     V1    10.0   1_455     S
V7     V10    10.0   .     S
V7     V8    10.0   .     S
V7     V9    10.0   1_554     S
V8     V35    10.0   .     S
V8     V34    10.0   .     S
V8     V1    10.0   1_455     S
V8     V2    10.0   1_455     S
V8     V11    10.0   .     S
V8     V9    10.0   .     S
V9     V36    10.0   .     S
V9     V35    10.0   .     S
V9     V2    10.0   1_455     S
V9     V3    10.0   1_455     S
V9     V12    10.0   .     S
V9     V7    10.0   1_556     S
V10     V28    10.0   .     S
V10     V29    10.0   .     S
V10     V12    10.0   1_554     S
V10     V11    10.0   .     S
V10     V17    10.0   .     S
V10     V16    10.0   .     S
V11     V29    10.0   .     S
V11     V30    10.0   .     S
V11     V12    10.0   .     S
V11     V18    10.0   .     S
V11     V17    10.0   .     S
V12     V30    10.0   .     S
V12     V28    10.0   1_556     S
V12     V10    10.0   1_556     S
V12     V16    10.0   1_556     S
V12     V18    10.0   .     S
V13     V6    10.0   1_554     S
V13     V31    10.0   1_545     S
V13     V33    10.0   1_544     S
V13     V16    10.0   .     S
V13     V14    10.0   .     S
V13     V15    10.0   1_554     S
V14     V32    10.0   1_545     S
V14     V31    10.0   1_545     S
V14     V17    10.0   .     S
V14     V15    10.0   .     S
V15     V33    10.0   1_545     S
V15     V32    10.0   1_545     S
V15     V18    10.0   .     S
V15     V13    10.0   1_556     S
V16     V22    10.0   .     S
V16     V24    10.0   1_554     S
V16     V12    10.0   1_554     S
V16     V17    10.0   .     S
V16     V18    10.0   1_554     S
V17     V23    10.0   .     S
V17     V22    10.0   .     S
V17     V18    10.0   .     S
V18     V24    10.0   .     S
V18     V23    10.0   .     S
V18     V16    10.0   1_556     S
V19     V3    10.0   1_554     S
V19     V22    10.0   .     S
V19     V20    10.0   .     S
V19     V21    10.0   1_554     S
V19     V36    10.0   1_654     S
V19     V34    10.0   1_655     S
V20     V23    10.0   .     S
V20     V21    10.0   .     S
V20     V34    10.0   1_655     S
V20     V35    10.0   1_655     S
V21     V24    10.0   .     S
V21     V19    10.0   1_556     S
V21     V35    10.0   1_655     S
V21     V36    10.0   1_655     S
V22     V24    10.0   1_554     S
V22     V23    10.0   .     S
V22     V29    10.0   .     S
V22     V28    10.0   .     S
V23     V24    10.0   .     S
V23     V30    10.0   .     S
V23     V29    10.0   .     S
V24     V16    10.0   1_556     S
V24     V22    10.0   1_556     S
V24     V28    10.0   1_556     S
V24     V30    10.0   .     S
V25     V33    10.0   1_554     S
V25     V31    10.0   .     S
V25     V4    10.0   1_565     S
V25     V6    10.0   1_564     S
V25     V28    10.0   .     S
V25     V26    10.0   .     S
V25     V27    10.0   1_554     S
V26     V31    10.0   .     S
V26     V32    10.0   .     S
V26     V5    10.0   1_565     S
V26     V4    10.0   1_565     S
V26     V29    10.0   .     S
V26     V27    10.0   .     S
V27     V32    10.0   .     S
V27     V33    10.0   .     S
V27     V6    10.0   1_565     S
V27     V5    10.0   1_565     S
V27     V30    10.0   .     S
V27     V25    10.0   1_556     S
V28     V12    10.0   1_554     S
V28     V24    10.0   1_554     S
V28     V29    10.0   .     S
V28     V30    10.0   1_554     S
V29     V30    10.0   .     S
V30     V28    10.0   1_556     S
V31     V13    10.0   1_565     S
V31     V14    10.0   1_565     S
V31     V34    10.0   .     S
V31     V33    10.0   1_554     S
V31     V32    10.0   .     S
V32     V14    10.0   1_565     S
V32     V15    10.0   1_565     S
V32     V35    10.0   .     S
V32     V33    10.0   .     S
V33     V25    10.0   1_556     S
V33     V15    10.0   1_565     S
V33     V13    10.0   1_566     S
V33     V36    10.0   .     S
V33     V31    10.0   1_556     S
V34     V20    10.0   1_455     S
V34     V19    10.0   1_455     S
V34     V36    10.0   1_554     S
V34     V35    10.0   .     S
V35     V21    10.0   1_455     S
V35     V20    10.0   1_455     S
V35     V36    10.0   .     S
V36     V7    10.0   1_556     S
V36     V19    10.0   1_456     S
V36     V21    10.0   1_455     S
V36     V34    10.0   1_556     S
