data_wnm
_audit_creation_date              2019-12-31
_audit_creation_method            'Pymatgen'
_symmetry_space_group_name_H-M    'P1'
_symmetry_Int_Tables_number       1
loop_
_symmetry_equiv_pos_as_xyz
  x,y,z
_cell_length_a                    44.7742
_cell_length_b                    44.7742
_cell_length_c                    29.9997
_cell_angle_alpha                 90.0
_cell_angle_beta                 90.0
_cell_angle_gamma                 120.0
loop_
_atom_site_label
_atom_site_type_symbol
_atom_site_fract_x
_atom_site_fract_y
_atom_site_fract_z
V1     V     0.6194   0.5285   0.2906
V2     V     0.6194   0.5285   0.624
V3     V     0.6194   0.5285   0.9573
V4     V     0.3806   0.4715   0.0427
V5     V     0.3806   0.4715   0.376
V6     V     0.3806   0.4715   0.7094
V7     V     0.1381   0.4241   0.0684
V8     V     0.1381   0.4241   0.4018
V9     V     0.1381   0.4241   0.7351
V10     V     0.1952   0.2425   0.1538
V11     V     0.1952   0.2425   0.4871
V12     V     0.1952   0.2425   0.8205
V13     V     0.714   0.1381   0.2649
V14     V     0.714   0.1381   0.5982
V15     V     0.714   0.1381   0.9316
V16     V     0.9527   0.1952   0.1795
V17     V     0.9527   0.1952   0.5129
V18     V     0.9527   0.1952   0.8462
V19     V     0.9092   0.3806   0.2906
V20     V     0.9092   0.3806   0.624
V21     V     0.9092   0.3806   0.9573
V22     V     0.0908   0.6194   0.0427
V23     V     0.0908   0.6194   0.376
V24     V     0.0908   0.6194   0.7094
V25     V     0.8619   0.5759   0.2649
V26     V     0.8619   0.5759   0.5982
V27     V     0.8619   0.5759   0.9316
V28     V     0.8048   0.7575   0.1795
V29     V     0.8048   0.7575   0.5129
V30     V     0.8048   0.7575   0.8462
V31     V     0.0473   0.8048   0.1538
V32     V     0.0473   0.8048   0.4871
V33     V     0.0473   0.8048   0.8205
V34     V     0.286   0.8619   0.0684
V35     V     0.286   0.8619   0.4018
V36     V     0.286   0.8619   0.7351
V37     V     0.7575   0.9527   0.1538
V38     V     0.7575   0.9527   0.4871
V39     V     0.7575   0.9527   0.8205
V40     V     0.5759   0.714   0.0684
V41     V     0.5759   0.714   0.4018
V42     V     0.5759   0.714   0.7351
V43     V     0.5285   0.9092   0.0427
V44     V     0.5285   0.9092   0.376
V45     V     0.5285   0.9092   0.7094
V46     V     0.4715   0.0908   0.2906
V47     V     0.4715   0.0908   0.624
V48     V     0.4715   0.0908   0.9573
V49     V     0.4241   0.286   0.2649
V50     V     0.4241   0.286   0.5982
V51     V     0.4241   0.286   0.9316
V52     V     0.2425   0.0473   0.1795
V53     V     0.2425   0.0473   0.5129
V54     V     0.2425   0.0473   0.8462
loop_
_geom_bond_atom_site_label_1
_geom_bond_atom_site_label_2
_geom_bond_distance
_geom_bond_site_symmetry_2
_ccdc_geom_bond_type
V1     V5    10.0   .     S
V1     V49    10.0   .     S
V1     V3    10.0   1_554     S
V1     V2    10.0   .     S
V1     V28    10.0   .     S
V1     V25    10.0   .     S
V1     V41    10.0   .     S
V2     V6    10.0   .     S
V2     V50    10.0   .     S
V2     V3    10.0   .     S
V2     V29    10.0   .     S
V2     V26    10.0   .     S
V2     V42    10.0   .     S
V3     V4    10.0   1_556     S
V3     V51    10.0   .     S
V3     V1    10.0   1_556     S
V3     V30    10.0   .     S
V3     V27    10.0   .     S
V3     V40    10.0   1_556     S
V4     V3    10.0   1_554     S
V4     V40    10.0   .     S
V4     V5    10.0   .     S
V4     V6    10.0   1_554     S
V4     V10    10.0   .     S
V4     V7    10.0   .     S
V4     V51    10.0   1_554     S
V5     V41    10.0   .     S
V5     V6    10.0   .     S
V5     V11    10.0   .     S
V5     V8    10.0   .     S
V5     V49    10.0   .     S
V6     V42    10.0   .     S
V6     V4    10.0   1_556     S
V6     V12    10.0   .     S
V6     V9    10.0   .     S
V6     V50    10.0   .     S
V7     V10    10.0   .     S
V7     V8    10.0   .     S
V7     V9    10.0   1_554     S
V7     V21    10.0   1_454     S
V7     V16    10.0   1_455     S
V7     V22    10.0   .     S
V8     V11    10.0   .     S
V8     V9    10.0   .     S
V8     V19    10.0   1_455     S
V8     V17    10.0   1_455     S
V8     V23    10.0   .     S
V9     V12    10.0   .     S
V9     V7    10.0   1_556     S
V9     V20    10.0   1_455     S
V9     V18    10.0   1_455     S
V9     V24    10.0   .     S
V10     V16    10.0   1_455     S
V10     V11    10.0   .     S
V10     V12    10.0   1_554     S
V10     V49    10.0   .     S
V10     V52    10.0   .     S
V11     V17    10.0   1_455     S
V11     V12    10.0   .     S
V11     V50    10.0   .     S
V11     V53    10.0   .     S
V12     V18    10.0   1_455     S
V12     V10    10.0   1_556     S
V12     V51    10.0   .     S
V12     V54    10.0   .     S
V13     V16    10.0   .     S
V13     V19    10.0   .     S
V13     V15    10.0   1_554     S
V13     V14    10.0   .     S
V13     V44    10.0   1_545     S
V13     V37    10.0   1_545     S
V13     V46    10.0   .     S
V14     V17    10.0   .     S
V14     V20    10.0   .     S
V14     V15    10.0   .     S
V14     V45    10.0   1_545     S
V14     V38    10.0   1_545     S
V14     V47    10.0   .     S
V15     V18    10.0   .     S
V15     V21    10.0   .     S
V15     V13    10.0   1_556     S
V15     V43    10.0   1_546     S
V15     V39    10.0   1_545     S
V15     V48    10.0   .     S
V16     V10    10.0   1_655     S
V16     V37    10.0   1_545     S
V16     V18    10.0   1_554     S
V16     V17    10.0   .     S
V16     V7    10.0   1_655     S
V16     V19    10.0   .     S
V17     V11    10.0   1_655     S
V17     V38    10.0   1_545     S
V17     V18    10.0   .     S
V17     V8    10.0   1_655     S
V17     V20    10.0   .     S
V18     V12    10.0   1_655     S
V18     V39    10.0   1_545     S
V18     V16    10.0   1_556     S
V18     V9    10.0   1_655     S
V18     V21    10.0   .     S
V19     V8    10.0   1_655     S
V19     V23    10.0   1_655     S
V19     V25    10.0   .     S
V19     V21    10.0   1_554     S
V19     V20    10.0   .     S
V20     V9    10.0   1_655     S
V20     V24    10.0   1_655     S
V20     V26    10.0   .     S
V20     V21    10.0   .     S
V21     V7    10.0   1_656     S
V21     V22    10.0   1_656     S
V21     V27    10.0   .     S
V21     V19    10.0   1_556     S
V22     V21    10.0   1_454     S
V22     V23    10.0   .     S
V22     V24    10.0   1_554     S
V22     V31    10.0   .     S
V22     V27    10.0   1_454     S
V22     V34    10.0   .     S
V23     V19    10.0   1_455     S
V23     V24    10.0   .     S
V23     V32    10.0   .     S
V23     V25    10.0   1_455     S
V23     V35    10.0   .     S
V24     V20    10.0   1_455     S
V24     V22    10.0   1_556     S
V24     V33    10.0   .     S
V24     V26    10.0   1_455     S
V24     V36    10.0   .     S
V25     V28    10.0   .     S
V25     V27    10.0   1_554     S
V25     V26    10.0   .     S
V25     V23    10.0   1_655     S
V25     V31    10.0   1_655     S
V26     V29    10.0   .     S
V26     V27    10.0   .     S
V26     V24    10.0   1_655     S
V26     V32    10.0   1_655     S
V27     V30    10.0   .     S
V27     V25    10.0   1_556     S
V27     V22    10.0   1_656     S
V27     V33    10.0   1_655     S
V28     V31    10.0   1_655     S
V28     V30    10.0   1_554     S
V28     V29    10.0   .     S
V28     V40    10.0   .     S
V28     V37    10.0   .     S
V29     V32    10.0   1_655     S
V29     V30    10.0   .     S
V29     V41    10.0   .     S
V29     V38    10.0   .     S
V30     V33    10.0   1_655     S
V30     V28    10.0   1_556     S
V30     V42    10.0   .     S
V30     V39    10.0   .     S
V31     V28    10.0   1_455     S
V31     V34    10.0   .     S
V31     V52    10.0   1_565     S
V31     V32    10.0   .     S
V31     V33    10.0   1_554     S
V31     V25    10.0   1_455     S
V32     V29    10.0   1_455     S
V32     V35    10.0   .     S
V32     V53    10.0   1_565     S
V32     V33    10.0   .     S
V32     V26    10.0   1_455     S
V33     V30    10.0   1_455     S
V33     V36    10.0   .     S
V33     V54    10.0   1_565     S
V33     V31    10.0   1_556     S
V33     V27    10.0   1_455     S
V34     V35    10.0   .     S
V34     V36    10.0   1_554     S
V34     V48    10.0   1_564     S
V34     V43    10.0   .     S
V34     V52    10.0   1_565     S
V35     V36    10.0   .     S
V35     V46    10.0   1_565     S
V35     V44    10.0   .     S
V35     V53    10.0   1_565     S
V36     V34    10.0   1_556     S
V36     V47    10.0   1_565     S
V36     V45    10.0   .     S
V36     V54    10.0   1_565     S
V37     V16    10.0   1_565     S
V37     V40    10.0   .     S
V37     V38    10.0   .     S
V37     V39    10.0   1_554     S
V37     V13    10.0   1_565     S
V37     V43    10.0   .     S
V38     V17    10.0   1_565     S
V38     V41    10.0   .     S
V38     V39    10.0   .     S
V38     V14    10.0   1_565     S
V38     V44    10.0   .     S
V39     V18    10.0   1_565     S
V39     V42    10.0   .     S
V39     V37    10.0   1_556     S
V39     V15    10.0   1_565     S
V39     V45    10.0   .     S
V40     V43    10.0   .     S
V40     V41    10.0   .     S
V40     V42    10.0   1_554     S
V40     V3    10.0   1_554     S
V41     V44    10.0   .     S
V41     V42    10.0   .     S
V42     V45    10.0   .     S
V42     V40    10.0   1_556     S
V43     V15    10.0   1_564     S
V43     V48    10.0   1_564     S
V43     V44    10.0   .     S
V43     V45    10.0   1_554     S
V44     V13    10.0   1_565     S
V44     V46    10.0   1_565     S
V44     V45    10.0   .     S
V45     V14    10.0   1_565     S
V45     V47    10.0   1_565     S
V45     V43    10.0   1_556     S
V46     V35    10.0   1_545     S
V46     V44    10.0   1_545     S
V46     V48    10.0   1_554     S
V46     V47    10.0   .     S
V46     V52    10.0   .     S
V46     V49    10.0   .     S
V47     V36    10.0   1_545     S
V47     V45    10.0   1_545     S
V47     V48    10.0   .     S
V47     V53    10.0   .     S
V47     V50    10.0   .     S
V48     V34    10.0   1_546     S
V48     V43    10.0   1_546     S
V48     V46    10.0   1_556     S
V48     V54    10.0   .     S
V48     V51    10.0   .     S
V49     V52    10.0   .     S
V49     V51    10.0   1_554     S
V49     V50    10.0   .     S
V50     V53    10.0   .     S
V50     V51    10.0   .     S
V51     V54    10.0   .     S
V51     V49    10.0   1_556     S
V51     V4    10.0   1_556     S
V52     V31    10.0   1_545     S
V52     V54    10.0   1_554     S
V52     V53    10.0   .     S
V52     V34    10.0   1_545     S
V53     V32    10.0   1_545     S
V53     V54    10.0   .     S
V53     V35    10.0   1_545     S
V54     V33    10.0   1_545     S
V54     V52    10.0   1_556     S
V54     V36    10.0   1_545     S
