data_wnn
_audit_creation_date              2019-12-31
_audit_creation_method            'Pymatgen'
_symmetry_space_group_name_H-M    'P1'
_symmetry_Int_Tables_number       1
loop_
_symmetry_equiv_pos_as_xyz
  x,y,z
_cell_length_a                    37.7893
_cell_length_b                    37.7893
_cell_length_c                    26.185
_cell_angle_alpha                 90.0
_cell_angle_beta                 90.0
_cell_angle_gamma                 120.0
loop_
_atom_site_label
_atom_site_type_symbol
_atom_site_fract_x
_atom_site_fract_y
_atom_site_fract_z
V1     V     0.3634   0.4833   0.4583
V2     V     0.3634   0.4833   0.9583
V3     V     0.6366   0.5167   0.0417
V4     V     0.6366   0.5167   0.5417
V5     V     0.4833   0.12   0.0417
V6     V     0.4833   0.12   0.5417
V7     V     0.5167   0.88   0.4583
V8     V     0.5167   0.88   0.9583
V9     V     0.7866   0.97   0.125
V10     V     0.7866   0.97   0.625
V11     V     0.5467   0.6967   0.2083
V12     V     0.5467   0.6967   0.7083
V13     V     0.6967   0.15   0.2917
V14     V     0.6967   0.15   0.7917
V15     V     0.97   0.1833   0.375
V16     V     0.97   0.1833   0.875
V17     V     0.12   0.6366   0.4583
V18     V     0.12   0.6366   0.9583
V19     V     0.88   0.3634   0.0417
V20     V     0.88   0.3634   0.5417
V21     V     0.8167   0.7866   0.375
V22     V     0.8167   0.7866   0.875
V23     V     0.85   0.5467   0.2917
V24     V     0.85   0.5467   0.7917
V25     V     0.03   0.8167   0.125
V26     V     0.03   0.8167   0.625
V27     V     0.3033   0.85   0.2083
V28     V     0.3033   0.85   0.7083
V29     V     0.15   0.4533   0.2083
V30     V     0.15   0.4533   0.7083
V31     V     0.1833   0.2134   0.125
V32     V     0.1833   0.2134   0.625
V33     V     0.4533   0.3033   0.2917
V34     V     0.4533   0.3033   0.7917
V35     V     0.2134   0.03   0.375
V36     V     0.2134   0.03   0.875
loop_
_geom_bond_atom_site_label_1
_geom_bond_atom_site_label_2
_geom_bond_distance
_geom_bond_site_symmetry_2
_ccdc_geom_bond_type
V1     V4    10.0   .     S
V1     V12    10.0   .     S
V1     V33    10.0   .     S
V1     V11    10.0   .     S
V1     V30    10.0   .     S
V1     V32    10.0   .     S
V1     V29    10.0   .     S
V2     V3    10.0   1_556     S
V2     V11    10.0   1_556     S
V2     V34    10.0   .     S
V2     V12    10.0   .     S
V2     V29    10.0   1_556     S
V2     V31    10.0   1_556     S
V2     V30    10.0   .     S
V3     V2    10.0   1_554     S
V3     V34    10.0   1_554     S
V3     V11    10.0   .     S
V3     V22    10.0   1_554     S
V3     V24    10.0   1_554     S
V3     V33    10.0   .     S
V3     V23    10.0   .     S
V4     V33    10.0   .     S
V4     V12    10.0   .     S
V4     V21    10.0   .     S
V4     V23    10.0   .     S
V4     V34    10.0   .     S
V4     V24    10.0   .     S
V5     V8    10.0   1_544     S
V5     V14    10.0   1_554     S
V5     V27    10.0   1_545     S
V5     V36    10.0   1_554     S
V5     V34    10.0   1_554     S
V5     V33    10.0   .     S
V5     V13    10.0   .     S
V6     V7    10.0   1_545     S
V6     V13    10.0   .     S
V6     V28    10.0   1_545     S
V6     V35    10.0   .     S
V6     V33    10.0   .     S
V6     V34    10.0   .     S
V6     V14    10.0   .     S
V7     V6    10.0   1_565     S
V7     V13    10.0   1_565     S
V7     V28    10.0   .     S
V7     V11    10.0   .     S
V7     V10    10.0   .     S
V7     V12    10.0   .     S
V7     V27    10.0   .     S
V8     V5    10.0   1_566     S
V8     V14    10.0   1_565     S
V8     V27    10.0   1_556     S
V8     V12    10.0   .     S
V8     V9    10.0   1_556     S
V8     V11    10.0   1_556     S
V8     V28    10.0   .     S
V9     V11    10.0   .     S
V9     V21    10.0   .     S
V9     V8    10.0   1_554     S
V9     V22    10.0   1_554     S
V9     V13    10.0   1_565     S
V9     V15    10.0   1_565     S
V9     V16    10.0   1_564     S
V10     V12    10.0   .     S
V10     V22    10.0   .     S
V10     V21    10.0   .     S
V10     V14    10.0   1_565     S
V10     V16    10.0   1_565     S
V10     V15    10.0   1_565     S
V11     V2    10.0   1_554     S
V11     V21    10.0   .     S
V11     V8    10.0   1_554     S
V12     V22    10.0   .     S
V13     V7    10.0   1_545     S
V13     V15    10.0   .     S
V13     V20    10.0   .     S
V13     V9    10.0   1_545     S
V13     V19    10.0   .     S
V14     V5    10.0   1_556     S
V14     V8    10.0   1_545     S
V14     V16    10.0   .     S
V14     V19    10.0   1_556     S
V14     V10    10.0   1_545     S
V14     V20    10.0   .     S
V15     V9    10.0   1_545     S
V15     V20    10.0   .     S
V15     V31    10.0   1_655     S
V15     V29    10.0   1_655     S
V15     V32    10.0   1_655     S
V15     V10    10.0   1_545     S
V16     V10    10.0   1_545     S
V16     V19    10.0   1_556     S
V16     V32    10.0   1_655     S
V16     V30    10.0   1_655     S
V16     V31    10.0   1_656     S
V16     V9    10.0   1_546     S
V17     V20    10.0   1_455     S
V17     V30    10.0   .     S
V17     V23    10.0   1_455     S
V17     V28    10.0   .     S
V17     V26    10.0   .     S
V17     V27    10.0   .     S
V17     V29    10.0   .     S
V18     V19    10.0   1_456     S
V18     V29    10.0   1_556     S
V18     V24    10.0   1_455     S
V18     V27    10.0   1_556     S
V18     V25    10.0   1_556     S
V18     V28    10.0   .     S
V18     V30    10.0   .     S
V19     V14    10.0   1_554     S
V19     V16    10.0   1_554     S
V19     V18    10.0   1_654     S
V19     V24    10.0   1_554     S
V19     V29    10.0   1_655     S
V19     V23    10.0   .     S
V20     V17    10.0   1_655     S
V20     V23    10.0   .     S
V20     V30    10.0   1_655     S
V20     V24    10.0   .     S
V21     V23    10.0   .     S
V21     V25    10.0   1_655     S
V21     V26    10.0   1_655     S
V22     V9    10.0   1_556     S
V22     V24    10.0   .     S
V22     V3    10.0   1_556     S
V22     V26    10.0   1_655     S
V22     V25    10.0   1_656     S
V23     V17    10.0   1_655     S
V23     V25    10.0   1_655     S
V24     V19    10.0   1_556     S
V24     V18    10.0   1_655     S
V24     V26    10.0   1_655     S
V24     V3    10.0   1_556     S
V25     V23    10.0   1_455     S
V25     V21    10.0   1_455     S
V25     V27    10.0   .     S
V25     V18    10.0   1_554     S
V25     V35    10.0   1_565     S
V25     V22    10.0   1_454     S
V25     V36    10.0   1_564     S
V26     V24    10.0   1_455     S
V26     V22    10.0   1_455     S
V26     V28    10.0   .     S
V26     V36    10.0   1_565     S
V26     V21    10.0   1_455     S
V26     V35    10.0   1_565     S
V27     V5    10.0   1_565     S
V27     V8    10.0   1_554     S
V27     V18    10.0   1_554     S
V27     V35    10.0   1_565     S
V28     V6    10.0   1_565     S
V28     V36    10.0   1_565     S
V29     V18    10.0   1_554     S
V29     V19    10.0   1_455     S
V29     V31    10.0   .     S
V29     V2    10.0   1_554     S
V29     V15    10.0   1_455     S
V30     V20    10.0   1_455     S
V30     V32    10.0   .     S
V30     V16    10.0   1_455     S
V31     V2    10.0   1_554     S
V31     V15    10.0   1_455     S
V31     V35    10.0   .     S
V31     V33    10.0   .     S
V31     V36    10.0   1_554     S
V31     V16    10.0   1_454     S
V32     V16    10.0   1_455     S
V32     V36    10.0   .     S
V32     V34    10.0   .     S
V32     V35    10.0   .     S
V32     V15    10.0   1_455     S
V33     V35    10.0   .     S
V34     V3    10.0   1_556     S
V34     V36    10.0   .     S
V34     V5    10.0   1_556     S
V35     V25    10.0   1_545     S
V35     V27    10.0   1_545     S
V35     V26    10.0   1_545     S
V36     V26    10.0   1_545     S
V36     V28    10.0   1_545     S
V36     V5    10.0   1_556     S
V36     V31    10.0   1_556     S
V36     V25    10.0   1_546     S
