data_wns
_audit_creation_date              2019-12-31
_audit_creation_method            'Pymatgen'
_symmetry_space_group_name_H-M    'P1'
_symmetry_Int_Tables_number       1
loop_
_symmetry_equiv_pos_as_xyz
  x,y,z
_cell_length_a                    26.112
_cell_length_b                    26.112
_cell_length_c                    39.1032
_cell_angle_alpha                 90.0
_cell_angle_beta                 90.0
_cell_angle_gamma                 120.0
loop_
_atom_site_label
_atom_site_type_symbol
_atom_site_fract_x
_atom_site_fract_y
_atom_site_fract_z
V1     V     0.1675   0.7519   0.2085
V2     V     0.1675   0.7519   0.7085
V3     V     0.2481   0.4156   0.2085
V4     V     0.2481   0.4156   0.7085
V5     V     0.5844   0.8325   0.2085
V6     V     0.5844   0.8325   0.7085
V7     V     0.5844   0.7519   0.4585
V8     V     0.5844   0.7519   0.9585
V9     V     0.2481   0.8325   0.4585
V10     V     0.2481   0.8325   0.9585
V11     V     0.1675   0.4156   0.4585
V12     V     0.1675   0.4156   0.9585
V13     V     0.4156   0.1675   0.2915
V14     V     0.4156   0.1675   0.7915
V15     V     0.8325   0.2481   0.2915
V16     V     0.8325   0.2481   0.7915
V17     V     0.7519   0.5844   0.2915
V18     V     0.7519   0.5844   0.7915
V19     V     0.4156   0.2481   0.0415
V20     V     0.4156   0.2481   0.5415
V21     V     0.7519   0.1675   0.0415
V22     V     0.7519   0.1675   0.5415
V23     V     0.8325   0.5844   0.0415
V24     V     0.8325   0.5844   0.5415
loop_
_geom_bond_atom_site_label_1
_geom_bond_atom_site_label_2
_geom_bond_distance
_geom_bond_site_symmetry_2
_ccdc_geom_bond_type
V1     V23    10.0   1_455     S
V1     V17    10.0   1_455     S
V1     V3    10.0   .     S
V1     V5    10.0   .     S
V1     V9    10.0   .     S
V1     V10    10.0   1_554     S
V1     V13    10.0   1_565     S
V2     V24    10.0   1_455     S
V2     V18    10.0   1_455     S
V2     V4    10.0   .     S
V2     V6    10.0   .     S
V2     V10    10.0   .     S
V2     V9    10.0   .     S
V2     V14    10.0   1_565     S
V3     V19    10.0   .     S
V3     V13    10.0   .     S
V3     V15    10.0   1_455     S
V3     V5    10.0   .     S
V3     V11    10.0   .     S
V3     V12    10.0   1_554     S
V4     V20    10.0   .     S
V4     V14    10.0   .     S
V4     V16    10.0   1_455     S
V4     V6    10.0   .     S
V4     V12    10.0   .     S
V4     V11    10.0   .     S
V5     V17    10.0   .     S
V5     V7    10.0   .     S
V5     V8    10.0   1_554     S
V5     V21    10.0   1_565     S
V5     V15    10.0   1_565     S
V6     V18    10.0   .     S
V6     V8    10.0   .     S
V6     V7    10.0   .     S
V6     V22    10.0   1_565     S
V6     V16    10.0   1_565     S
V7     V24    10.0   .     S
V7     V17    10.0   .     S
V7     V9    10.0   .     S
V7     V11    10.0   .     S
V7     V22    10.0   1_565     S
V8     V23    10.0   1_556     S
V8     V18    10.0   .     S
V8     V10    10.0   .     S
V8     V12    10.0   .     S
V8     V5    10.0   1_556     S
V8     V21    10.0   1_566     S
V9     V24    10.0   1_455     S
V9     V11    10.0   .     S
V9     V20    10.0   1_565     S
V9     V13    10.0   1_565     S
V10     V23    10.0   1_456     S
V10     V12    10.0   .     S
V10     V1    10.0   1_556     S
V10     V19    10.0   1_566     S
V10     V14    10.0   1_565     S
V11     V20    10.0   .     S
V11     V22    10.0   1_455     S
V11     V15    10.0   1_455     S
V12     V19    10.0   1_556     S
V12     V21    10.0   1_456     S
V12     V16    10.0   1_455     S
V12     V3    10.0   1_556     S
V13     V17    10.0   .     S
V13     V15    10.0   .     S
V13     V19    10.0   .     S
V13     V20    10.0   .     S
V13     V9    10.0   1_545     S
V13     V1    10.0   1_545     S
V14     V18    10.0   .     S
V14     V16    10.0   .     S
V14     V20    10.0   .     S
V14     V19    10.0   1_556     S
V14     V10    10.0   1_545     S
V14     V2    10.0   1_545     S
V15     V11    10.0   1_655     S
V15     V3    10.0   1_655     S
V15     V5    10.0   1_545     S
V15     V17    10.0   .     S
V15     V21    10.0   .     S
V15     V22    10.0   .     S
V16     V12    10.0   1_655     S
V16     V4    10.0   1_655     S
V16     V6    10.0   1_545     S
V16     V18    10.0   .     S
V16     V22    10.0   .     S
V16     V21    10.0   1_556     S
V17     V1    10.0   1_655     S
V17     V23    10.0   .     S
V17     V24    10.0   .     S
V18     V2    10.0   1_655     S
V18     V24    10.0   .     S
V18     V23    10.0   1_556     S
V19     V12    10.0   1_554     S
V19     V23    10.0   .     S
V19     V21    10.0   .     S
V19     V14    10.0   1_554     S
V19     V10    10.0   1_544     S
V20     V24    10.0   .     S
V20     V22    10.0   .     S
V20     V9    10.0   1_545     S
V21     V12    10.0   1_654     S
V21     V8    10.0   1_544     S
V21     V5    10.0   1_545     S
V21     V23    10.0   .     S
V21     V16    10.0   1_554     S
V22     V11    10.0   1_655     S
V22     V7    10.0   1_545     S
V22     V6    10.0   1_545     S
V22     V24    10.0   .     S
V23     V10    10.0   1_654     S
V23     V1    10.0   1_655     S
V23     V8    10.0   1_554     S
V23     V18    10.0   1_554     S
V24     V9    10.0   1_655     S
V24     V2    10.0   1_655     S
