data_wnt
_audit_creation_date              2019-12-31
_audit_creation_method            'Pymatgen'
_symmetry_space_group_name_H-M    'P1'
_symmetry_Int_Tables_number       1
loop_
_symmetry_equiv_pos_as_xyz
  x,y,z
_cell_length_a                    39.5872
_cell_length_b                    39.5872
_cell_length_c                    34.4046
_cell_angle_alpha                 90.0
_cell_angle_beta                 90.0
_cell_angle_gamma                 120.0
loop_
_atom_site_label
_atom_site_type_symbol
_atom_site_fract_x
_atom_site_fract_y
_atom_site_fract_z
V1     V     0.3333   0.4376   0.3813
V2     V     0.3333   0.9376   0.3813
V3     V     0.8333   0.4376   0.3813
V4     V     0.8333   0.9376   0.3813
V5     V     0.3958   0.3333   0.6187
V6     V     0.3958   0.8333   0.6187
V7     V     0.8958   0.3333   0.6187
V8     V     0.8958   0.8333   0.6187
V9     V     0.0624   0.3958   0.3813
V10     V     0.0624   0.8958   0.3813
V11     V     0.5624   0.3958   0.3813
V12     V     0.5624   0.8958   0.3813
V13     V     0.4376   0.1042   0.6187
V14     V     0.4376   0.6042   0.6187
V15     V     0.9376   0.1042   0.6187
V16     V     0.9376   0.6042   0.6187
V17     V     0.1667   0.0624   0.6187
V18     V     0.1667   0.5624   0.6187
V19     V     0.6667   0.0624   0.6187
V20     V     0.6667   0.5624   0.6187
V21     V     0.1042   0.1667   0.3813
V22     V     0.1042   0.6667   0.3813
V23     V     0.6042   0.1667   0.3813
V24     V     0.6042   0.6667   0.3813
V25     V     0.1042   0.4376   0.8813
V26     V     0.1042   0.9376   0.8813
V27     V     0.6042   0.4376   0.8813
V28     V     0.6042   0.9376   0.8813
V29     V     0.4376   0.3333   0.1187
V30     V     0.4376   0.8333   0.1187
V31     V     0.9376   0.3333   0.1187
V32     V     0.9376   0.8333   0.1187
V33     V     0.3958   0.0624   0.1187
V34     V     0.3958   0.5624   0.1187
V35     V     0.8958   0.0624   0.1187
V36     V     0.8958   0.5624   0.1187
V37     V     0.3333   0.3958   0.8813
V38     V     0.3333   0.8958   0.8813
V39     V     0.8333   0.3958   0.8813
V40     V     0.8333   0.8958   0.8813
V41     V     0.1667   0.1042   0.1187
V42     V     0.1667   0.6042   0.1187
V43     V     0.6667   0.1042   0.1187
V44     V     0.6667   0.6042   0.1187
V45     V     0.0624   0.1667   0.8813
V46     V     0.0624   0.6667   0.8813
V47     V     0.5624   0.1667   0.8813
V48     V     0.5624   0.6667   0.8813
loop_
_geom_bond_atom_site_label_1
_geom_bond_atom_site_label_2
_geom_bond_distance
_geom_bond_site_symmetry_2
_ccdc_geom_bond_type
V1     V21    10.0   .     S
V1     V9    10.0   .     S
V1     V5    10.0   .     S
V1     V11    10.0   .     S
V1     V14    10.0   .     S
V1     V24    10.0   .     S
V1     V34    10.0   .     S
V2     V22    10.0   .     S
V2     V10    10.0   .     S
V2     V6    10.0   .     S
V2     V12    10.0   .     S
V2     V13    10.0   1_565     S
V2     V23    10.0   1_565     S
V2     V33    10.0   1_565     S
V3     V23    10.0   .     S
V3     V11    10.0   .     S
V3     V7    10.0   .     S
V3     V9    10.0   1_655     S
V3     V16    10.0   .     S
V3     V22    10.0   1_655     S
V3     V36    10.0   .     S
V4     V24    10.0   .     S
V4     V12    10.0   .     S
V4     V8    10.0   .     S
V4     V10    10.0   1_655     S
V4     V15    10.0   1_565     S
V4     V21    10.0   1_665     S
V4     V35    10.0   1_565     S
V5     V17    10.0   .     S
V5     V13    10.0   .     S
V5     V14    10.0   .     S
V5     V11    10.0   .     S
V5     V20    10.0   .     S
V5     V37    10.0   .     S
V6     V18    10.0   .     S
V6     V14    10.0   .     S
V6     V13    10.0   1_565     S
V6     V12    10.0   .     S
V6     V19    10.0   1_565     S
V6     V38    10.0   .     S
V7     V19    10.0   .     S
V7     V15    10.0   .     S
V7     V16    10.0   .     S
V7     V9    10.0   1_655     S
V7     V18    10.0   1_655     S
V7     V39    10.0   .     S
V8     V20    10.0   .     S
V8     V16    10.0   .     S
V8     V15    10.0   1_565     S
V8     V10    10.0   1_655     S
V8     V17    10.0   1_665     S
V8     V40    10.0   .     S
V9     V21    10.0   .     S
V9     V7    10.0   1_455     S
V9     V3    10.0   1_455     S
V9     V18    10.0   .     S
V9     V22    10.0   .     S
V9     V31    10.0   1_455     S
V10     V22    10.0   .     S
V10     V8    10.0   1_455     S
V10     V4    10.0   1_455     S
V10     V17    10.0   1_565     S
V10     V21    10.0   1_565     S
V10     V32    10.0   1_455     S
V11     V23    10.0   .     S
V11     V20    10.0   .     S
V11     V24    10.0   .     S
V11     V29    10.0   .     S
V12     V24    10.0   .     S
V12     V19    10.0   1_565     S
V12     V23    10.0   1_565     S
V12     V30    10.0   .     S
V13     V17    10.0   .     S
V13     V6    10.0   1_545     S
V13     V2    10.0   1_545     S
V13     V19    10.0   .     S
V13     V23    10.0   .     S
V13     V47    10.0   .     S
V14     V18    10.0   .     S
V14     V20    10.0   .     S
V14     V24    10.0   .     S
V14     V48    10.0   .     S
V15     V19    10.0   .     S
V15     V8    10.0   1_545     S
V15     V4    10.0   1_545     S
V15     V17    10.0   1_655     S
V15     V21    10.0   1_655     S
V15     V45    10.0   1_655     S
V16     V20    10.0   .     S
V16     V18    10.0   1_655     S
V16     V22    10.0   1_655     S
V16     V46    10.0   1_655     S
V17     V8    10.0   1_445     S
V17     V10    10.0   1_545     S
V17     V21    10.0   .     S
V17     V15    10.0   1_455     S
V17     V26    10.0   1_545     S
V18     V7    10.0   1_455     S
V18     V22    10.0   .     S
V18     V16    10.0   1_455     S
V18     V25    10.0   .     S
V19     V6    10.0   1_545     S
V19     V12    10.0   1_545     S
V19     V23    10.0   .     S
V19     V28    10.0   1_545     S
V20     V24    10.0   .     S
V20     V27    10.0   .     S
V21     V4    10.0   1_445     S
V21     V10    10.0   1_545     S
V21     V15    10.0   1_455     S
V21     V41    10.0   .     S
V22     V3    10.0   1_455     S
V22     V16    10.0   1_455     S
V22     V42    10.0   .     S
V23     V2    10.0   1_545     S
V23     V12    10.0   1_545     S
V23     V43    10.0   .     S
V24     V44    10.0   .     S
V25     V37    10.0   .     S
V25     V45    10.0   .     S
V25     V31    10.0   1_456     S
V25     V39    10.0   1_455     S
V25     V46    10.0   .     S
V25     V42    10.0   1_556     S
V26     V38    10.0   .     S
V26     V46    10.0   .     S
V26     V32    10.0   1_456     S
V26     V40    10.0   1_455     S
V26     V45    10.0   1_565     S
V26     V41    10.0   1_566     S
V26     V17    10.0   1_565     S
V27     V39    10.0   .     S
V27     V47    10.0   .     S
V27     V29    10.0   1_556     S
V27     V37    10.0   .     S
V27     V48    10.0   .     S
V27     V44    10.0   1_556     S
V28     V40    10.0   .     S
V28     V48    10.0   .     S
V28     V30    10.0   1_556     S
V28     V38    10.0   .     S
V28     V47    10.0   1_565     S
V28     V43    10.0   1_566     S
V28     V19    10.0   1_565     S
V29     V41    10.0   .     S
V29     V33    10.0   .     S
V29     V27    10.0   1_554     S
V29     V44    10.0   .     S
V29     V37    10.0   1_554     S
V29     V34    10.0   .     S
V30     V42    10.0   .     S
V30     V34    10.0   .     S
V30     V28    10.0   1_554     S
V30     V43    10.0   1_565     S
V30     V38    10.0   1_554     S
V30     V33    10.0   1_565     S
V31     V43    10.0   .     S
V31     V35    10.0   .     S
V31     V25    10.0   1_654     S
V31     V42    10.0   1_655     S
V31     V39    10.0   1_554     S
V31     V36    10.0   .     S
V31     V9    10.0   1_655     S
V32     V44    10.0   .     S
V32     V36    10.0   .     S
V32     V26    10.0   1_654     S
V32     V41    10.0   1_665     S
V32     V40    10.0   1_554     S
V32     V35    10.0   1_565     S
V32     V10    10.0   1_655     S
V33     V41    10.0   .     S
V33     V47    10.0   1_554     S
V33     V38    10.0   1_544     S
V33     V30    10.0   1_545     S
V33     V43    10.0   .     S
V33     V2    10.0   1_545     S
V34     V42    10.0   .     S
V34     V48    10.0   1_554     S
V34     V37    10.0   1_554     S
V34     V44    10.0   .     S
V35     V43    10.0   .     S
V35     V45    10.0   1_654     S
V35     V40    10.0   1_544     S
V35     V32    10.0   1_545     S
V35     V41    10.0   1_655     S
V35     V4    10.0   1_545     S
V36     V44    10.0   .     S
V36     V46    10.0   1_654     S
V36     V39    10.0   1_554     S
V36     V42    10.0   1_655     S
V37     V45    10.0   .     S
V37     V29    10.0   1_556     S
V37     V48    10.0   .     S
V37     V34    10.0   1_556     S
V38     V46    10.0   .     S
V38     V30    10.0   1_556     S
V38     V47    10.0   1_565     S
V38     V33    10.0   1_566     S
V39     V47    10.0   .     S
V39     V25    10.0   1_655     S
V39     V31    10.0   1_556     S
V39     V46    10.0   1_655     S
V39     V36    10.0   1_556     S
V40     V48    10.0   .     S
V40     V26    10.0   1_655     S
V40     V32    10.0   1_556     S
V40     V45    10.0   1_665     S
V40     V35    10.0   1_566     S
V41     V32    10.0   1_445     S
V41     V26    10.0   1_544     S
V41     V45    10.0   1_554     S
V41     V35    10.0   1_455     S
V42     V31    10.0   1_455     S
V42     V25    10.0   1_554     S
V42     V46    10.0   1_554     S
V42     V36    10.0   1_455     S
V43     V30    10.0   1_545     S
V43     V28    10.0   1_544     S
V43     V47    10.0   1_554     S
V44     V27    10.0   1_554     S
V44     V48    10.0   1_554     S
V45     V40    10.0   1_445     S
V45     V35    10.0   1_456     S
V45     V26    10.0   1_545     S
V45     V41    10.0   1_556     S
V45     V15    10.0   1_455     S
V46     V39    10.0   1_455     S
V46     V36    10.0   1_456     S
V46     V42    10.0   1_556     S
V46     V16    10.0   1_455     S
V47     V38    10.0   1_545     S
V47     V33    10.0   1_556     S
V47     V28    10.0   1_545     S
V47     V43    10.0   1_556     S
V48     V34    10.0   1_556     S
V48     V44    10.0   1_556     S
