data_wnu
_audit_creation_date              2019-12-31
_audit_creation_method            'Pymatgen'
_symmetry_space_group_name_H-M    'P1'
_symmetry_Int_Tables_number       1
loop_
_symmetry_equiv_pos_as_xyz
  x,y,z
_cell_length_a                    75.137
_cell_length_b                    75.137
_cell_length_c                    30.0
_cell_angle_alpha                 90.0
_cell_angle_beta                 90.0
_cell_angle_gamma                 120.0
loop_
_atom_site_label
_atom_site_type_symbol
_atom_site_fract_x
_atom_site_fract_y
_atom_site_fract_z
V1     V     0.1423   0.3999   0.1111
V2     V     0.1423   0.3999   0.4444
V3     V     0.1423   0.3999   0.7778
V4     V     0.0758   0.2668   0.2778
V5     V     0.0758   0.2668   0.6111
V6     V     0.0758   0.2668   0.9444
V7     V     0.2576   0.3999   0.2778
V8     V     0.2576   0.3999   0.6111
V9     V     0.2576   0.3999   0.9444
V10     V     0.191   0.2668   0.1111
V11     V     0.191   0.2668   0.4444
V12     V     0.191   0.2668   0.7778
V13     V     0.8577   0.6001   0.2222
V14     V     0.8577   0.6001   0.5556
V15     V     0.8577   0.6001   0.8889
V16     V     0.9242   0.7332   0.0556
V17     V     0.9242   0.7332   0.3889
V18     V     0.9242   0.7332   0.7222
V19     V     0.7424   0.6001   0.0556
V20     V     0.7424   0.6001   0.3889
V21     V     0.7424   0.6001   0.7222
V22     V     0.809   0.7332   0.2222
V23     V     0.809   0.7332   0.5556
V24     V     0.809   0.7332   0.8889
V25     V     0.0665   0.5909   0.0
V26     V     0.0665   0.5909   0.3333
V27     V     0.0665   0.5909   0.6667
V28     V     0.9335   0.5244   0.1667
V29     V     0.9335   0.5244   0.5
V30     V     0.9335   0.5244   0.8333
V31     V     0.0665   0.4756   0.1667
V32     V     0.0665   0.4756   0.5
V33     V     0.0665   0.4756   0.8333
V34     V     0.9335   0.4091   0.3333
V35     V     0.9335   0.4091   0.6667
V36     V     0.9335   0.4091   1.0
V37     V     0.2576   0.8577   0.1111
V38     V     0.2576   0.8577   0.4444
V39     V     0.2576   0.8577   0.7778
V40     V     0.191   0.9242   0.2778
V41     V     0.191   0.9242   0.6111
V42     V     0.191   0.9242   0.9444
V43     V     0.1423   0.7424   0.2778
V44     V     0.1423   0.7424   0.6111
V45     V     0.1423   0.7424   0.9444
V46     V     0.0758   0.809   0.1111
V47     V     0.0758   0.809   0.4444
V48     V     0.0758   0.809   0.7778
V49     V     0.5909   0.5244   0.3333
V50     V     0.5909   0.5244   0.6667
V51     V     0.5909   0.5244   1.0
V52     V     0.5244   0.5909   0.1667
V53     V     0.5244   0.5909   0.5
V54     V     0.5244   0.5909   0.8333
V55     V     0.4756   0.4091   0.1667
V56     V     0.4756   0.4091   0.5
V57     V     0.4756   0.4091   0.8333
V58     V     0.4091   0.4756   0.0
V59     V     0.4091   0.4756   0.3333
V60     V     0.4091   0.4756   0.6667
V61     V     0.6001   0.8577   0.2778
V62     V     0.6001   0.8577   0.6111
V63     V     0.6001   0.8577   0.9444
V64     V     0.7332   0.9242   0.1111
V65     V     0.7332   0.9242   0.4444
V66     V     0.7332   0.9242   0.7778
V67     V     0.6001   0.7424   0.1111
V68     V     0.6001   0.7424   0.4444
V69     V     0.6001   0.7424   0.7778
V70     V     0.7332   0.809   0.2778
V71     V     0.7332   0.809   0.6111
V72     V     0.7332   0.809   0.9444
V73     V     0.8577   0.2576   0.0556
V74     V     0.8577   0.2576   0.3889
V75     V     0.8577   0.2576   0.7222
V76     V     0.9242   0.191   0.2222
V77     V     0.9242   0.191   0.5556
V78     V     0.9242   0.191   0.8889
V79     V     0.7424   0.1423   0.2222
V80     V     0.7424   0.1423   0.5556
V81     V     0.7424   0.1423   0.8889
V82     V     0.809   0.0758   0.0556
V83     V     0.809   0.0758   0.3889
V84     V     0.809   0.0758   0.7222
V85     V     0.4756   0.0665   0.3333
V86     V     0.4756   0.0665   0.6667
V87     V     0.4756   0.0665   1.0
V88     V     0.4091   0.9335   0.1667
V89     V     0.4091   0.9335   0.5
V90     V     0.4091   0.9335   0.8333
V91     V     0.5909   0.0665   0.1667
V92     V     0.5909   0.0665   0.5
V93     V     0.5909   0.0665   0.8333
V94     V     0.5244   0.9335   0.0
V95     V     0.5244   0.9335   0.3333
V96     V     0.5244   0.9335   0.6667
V97     V     0.2668   0.191   0.0556
V98     V     0.2668   0.191   0.3889
V99     V     0.2668   0.191   0.7222
V100     V     0.3999   0.2576   0.2222
V101     V     0.3999   0.2576   0.5556
V102     V     0.3999   0.2576   0.8889
V103     V     0.3999   0.1423   0.0556
V104     V     0.3999   0.1423   0.3889
V105     V     0.3999   0.1423   0.7222
V106     V     0.2668   0.0758   0.2222
V107     V     0.2668   0.0758   0.5556
V108     V     0.2668   0.0758   0.8889
loop_
_geom_bond_atom_site_label_1
_geom_bond_atom_site_label_2
_geom_bond_distance
_geom_bond_site_symmetry_2
_ccdc_geom_bond_type
V1     V7    9.999   .     S
V1     V2    10.0   .     S
V1     V3    10.0   1_554     S
V1     V6    10.0   1_554     S
V1     V4    10.0   .     S
V1     V9    9.999   1_554     S
V1     V31    10.001   .     S
V2     V8    9.999   .     S
V2     V3    10.0   .     S
V2     V4    10.0   .     S
V2     V5    10.0   .     S
V2     V7    9.999   .     S
V2     V32    10.001   .     S
V3     V9    9.999   .     S
V3     V1    10.0   1_556     S
V3     V5    10.0   .     S
V3     V6    10.0   .     S
V3     V8    9.999   .     S
V3     V33    10.001   .     S
V4     V6    10.0   1_554     S
V4     V5    10.0   .     S
V4     V10    9.999   .     S
V4     V11    9.999   .     S
V4     V76    10.001   1_455     S
V5     V6    10.0   .     S
V5     V11    9.999   .     S
V5     V12    9.999   .     S
V5     V77    10.001   1_455     S
V6     V1    10.0   1_556     S
V6     V4    10.0   1_556     S
V6     V12    9.999   .     S
V6     V10    9.999   1_556     S
V6     V78    10.001   1_455     S
V7     V9    10.0   1_554     S
V7     V8    10.0   .     S
V7     V11    10.0   .     S
V7     V10    10.0   .     S
V7     V59    10.001   .     S
V8     V9    10.0   .     S
V8     V12    10.0   .     S
V8     V11    10.0   .     S
V8     V60    10.001   .     S
V9     V1    9.999   1_556     S
V9     V7    10.0   1_556     S
V9     V10    10.0   1_556     S
V9     V12    10.0   .     S
V9     V58    10.001   1_556     S
V10     V9    10.0   1_554     S
V10     V6    9.999   1_554     S
V10     V11    10.0   .     S
V10     V12    10.0   1_554     S
V10     V97    10.001   .     S
V11     V12    10.0   .     S
V11     V98    10.001   .     S
V12     V10    10.0   1_556     S
V12     V99    10.001   .     S
V13     V19    9.999   .     S
V13     V15    10.0   1_554     S
V13     V14    10.0   .     S
V13     V16    10.0   .     S
V13     V17    10.0   .     S
V13     V20    9.999   .     S
V13     V28    10.001   .     S
V14     V20    9.999   .     S
V14     V15    10.0   .     S
V14     V17    10.0   .     S
V14     V18    10.0   .     S
V14     V21    9.999   .     S
V14     V29    10.001   .     S
V15     V21    9.999   .     S
V15     V13    10.0   1_556     S
V15     V18    10.0   .     S
V15     V16    10.0   1_556     S
V15     V19    9.999   1_556     S
V15     V30    10.001   .     S
V16     V15    10.0   1_554     S
V16     V17    10.0   .     S
V16     V18    10.0   1_554     S
V16     V22    9.999   .     S
V16     V24    9.999   1_554     S
V16     V46    10.001   1_655     S
V17     V18    10.0   .     S
V17     V23    9.999   .     S
V17     V22    9.999   .     S
V17     V47    10.001   1_655     S
V18     V16    10.0   1_556     S
V18     V24    9.999   .     S
V18     V23    9.999   .     S
V18     V48    10.001   1_655     S
V19     V15    9.999   1_554     S
V19     V20    10.0   .     S
V19     V21    10.0   1_554     S
V19     V22    10.0   .     S
V19     V24    10.0   1_554     S
V19     V51    10.001   1_554     S
V20     V21    10.0   .     S
V20     V23    10.0   .     S
V20     V22    10.0   .     S
V20     V49    10.001   .     S
V21     V19    10.0   1_556     S
V21     V24    10.0   .     S
V21     V23    10.0   .     S
V21     V50    10.001   .     S
V22     V24    10.0   1_554     S
V22     V23    10.0   .     S
V22     V70    10.001   .     S
V23     V24    10.0   .     S
V23     V71    10.001   .     S
V24     V19    10.0   1_556     S
V24     V16    9.999   1_556     S
V24     V22    10.0   1_556     S
V24     V72    10.001   .     S
V25     V33    9.999   1_554     S
V25     V26    10.0   .     S
V25     V27    10.0   1_554     S
V25     V28    10.0   1_455     S
V25     V30    10.0   1_454     S
V25     V31    9.999   .     S
V25     V45    10.001   1_554     S
V26     V31    9.999   .     S
V26     V27    10.0   .     S
V26     V29    10.0   1_455     S
V26     V28    10.0   1_455     S
V26     V32    9.999   .     S
V26     V43    10.001   .     S
V27     V32    9.999   .     S
V27     V25    10.0   1_556     S
V27     V30    10.0   1_455     S
V27     V29    10.0   1_455     S
V27     V33    9.999   .     S
V27     V44    10.001   .     S
V28     V25    10.0   1_655     S
V28     V26    10.0   1_655     S
V28     V29    10.0   .     S
V28     V30    10.0   1_554     S
V28     V34    9.999   .     S
V28     V36    9.999   1_554     S
V29     V26    10.0   1_655     S
V29     V27    10.0   1_655     S
V29     V30    10.0   .     S
V29     V35    9.999   .     S
V29     V34    9.999   .     S
V30     V27    10.0   1_655     S
V30     V25    10.0   1_656     S
V30     V28    10.0   1_556     S
V30     V36    9.999   .     S
V30     V35    9.999   .     S
V31     V34    10.0   1_455     S
V31     V33    10.0   1_554     S
V31     V32    10.0   .     S
V31     V36    10.0   1_454     S
V32     V35    10.0   1_455     S
V32     V33    10.0   .     S
V32     V34    10.0   1_455     S
V33     V25    9.999   1_556     S
V33     V36    10.0   1_455     S
V33     V31    10.0   1_556     S
V33     V35    10.0   1_455     S
V34     V31    10.0   1_655     S
V34     V32    10.0   1_655     S
V34     V36    10.0   1_554     S
V34     V35    10.0   .     S
V34     V74    10.001   .     S
V35     V32    10.0   1_655     S
V35     V33    10.0   1_655     S
V35     V36    10.0   .     S
V35     V75    10.001   .     S
V36     V33    10.0   1_655     S
V36     V31    10.0   1_656     S
V36     V28    9.999   1_556     S
V36     V34    10.0   1_556     S
V36     V73    10.001   1_556     S
V37     V42    10.0   1_554     S
V37     V38    10.0   .     S
V37     V39    10.0   1_554     S
V37     V43    9.999   .     S
V37     V40    10.0   .     S
V37     V45    9.999   1_554     S
V37     V88    10.001   .     S
V38     V40    10.0   .     S
V38     V39    10.0   .     S
V38     V44    9.999   .     S
V38     V41    10.0   .     S
V38     V43    9.999   .     S
V38     V89    10.001   .     S
V39     V41    10.0   .     S
V39     V37    10.0   1_556     S
V39     V45    9.999   .     S
V39     V42    10.0   .     S
V39     V44    9.999   .     S
V39     V90    10.001   .     S
V40     V46    9.999   .     S
V40     V42    10.0   1_554     S
V40     V41    10.0   .     S
V40     V47    9.999   .     S
V40     V106    10.001   1_565     S
V41     V47    9.999   .     S
V41     V42    10.0   .     S
V41     V48    9.999   .     S
V41     V107    10.001   1_565     S
V42     V37    10.0   1_556     S
V42     V48    9.999   .     S
V42     V40    10.0   1_556     S
V42     V46    9.999   1_556     S
V42     V108    10.001   1_565     S
V43     V45    10.0   1_554     S
V43     V44    10.0   .     S
V43     V47    10.0   .     S
V43     V46    10.0   .     S
V44     V45    10.0   .     S
V44     V48    10.0   .     S
V44     V47    10.0   .     S
V45     V37    9.999   1_556     S
V45     V43    10.0   1_556     S
V45     V46    10.0   1_556     S
V45     V48    10.0   .     S
V45     V25    10.001   1_556     S
V46     V45    10.0   1_554     S
V46     V42    9.999   1_554     S
V46     V47    10.0   .     S
V46     V48    10.0   1_554     S
V46     V16    10.001   1_455     S
V47     V48    10.0   .     S
V47     V17    10.001   1_455     S
V48     V46    10.0   1_556     S
V48     V18    10.001   1_455     S
V49     V52    10.0   .     S
V49     V51    10.0   1_554     S
V49     V50    10.0   .     S
V49     V56    9.999   .     S
V49     V53    10.0   .     S
V49     V55    9.999   .     S
V50     V53    10.0   .     S
V50     V51    10.0   .     S
V50     V57    9.999   .     S
V50     V54    10.0   .     S
V50     V56    9.999   .     S
V51     V54    10.0   .     S
V51     V49    10.0   1_556     S
V51     V55    9.999   1_556     S
V51     V52    10.0   1_556     S
V51     V57    9.999   .     S
V51     V19    10.001   1_556     S
V52     V51    10.0   1_554     S
V52     V58    9.999   .     S
V52     V54    10.0   1_554     S
V52     V53    10.0   .     S
V52     V59    9.999   .     S
V52     V67    10.001   .     S
V53     V59    9.999   .     S
V53     V54    10.0   .     S
V53     V60    9.999   .     S
V53     V68    10.001   .     S
V54     V60    9.999   .     S
V54     V52    10.0   1_556     S
V54     V58    9.999   1_556     S
V54     V69    10.001   .     S
V55     V51    9.999   1_554     S
V55     V56    10.0   .     S
V55     V57    10.0   1_554     S
V55     V58    10.0   .     S
V55     V59    10.0   .     S
V55     V100    10.001   .     S
V56     V57    10.0   .     S
V56     V59    10.0   .     S
V56     V60    10.0   .     S
V56     V101    10.001   .     S
V57     V55    10.0   1_556     S
V57     V60    10.0   .     S
V57     V58    10.0   1_556     S
V57     V102    10.001   .     S
V58     V9    10.001   1_554     S
V58     V57    10.0   1_554     S
V58     V59    10.0   .     S
V58     V60    10.0   1_554     S
V58     V54    9.999   1_554     S
V59     V60    10.0   .     S
V60     V58    10.0   1_556     S
V61     V68    9.999   .     S
V61     V63    10.0   1_554     S
V61     V62    10.0   .     S
V61     V65    10.0   .     S
V61     V64    10.0   .     S
V61     V67    9.999   .     S
V61     V95    10.001   .     S
V62     V69    9.999   .     S
V62     V63    10.0   .     S
V62     V66    10.0   .     S
V62     V65    10.0   .     S
V62     V68    9.999   .     S
V62     V96    10.001   .     S
V63     V67    9.999   1_556     S
V63     V61    10.0   1_556     S
V63     V64    10.0   1_556     S
V63     V66    10.0   .     S
V63     V69    9.999   .     S
V63     V94    10.001   1_556     S
V64     V63    10.0   1_554     S
V64     V72    9.999   1_554     S
V64     V65    10.0   .     S
V64     V66    10.0   1_554     S
V64     V70    9.999   .     S
V64     V82    10.001   1_565     S
V65     V70    9.999   .     S
V65     V66    10.0   .     S
V65     V71    9.999   .     S
V65     V83    10.001   1_565     S
V66     V71    9.999   .     S
V66     V64    10.0   1_556     S
V66     V72    9.999   .     S
V66     V84    10.001   1_565     S
V67     V63    9.999   1_554     S
V67     V68    10.0   .     S
V67     V69    10.0   1_554     S
V67     V72    10.0   1_554     S
V67     V70    10.0   .     S
V68     V69    10.0   .     S
V68     V70    10.0   .     S
V68     V71    10.0   .     S
V69     V67    10.0   1_556     S
V69     V71    10.0   .     S
V69     V72    10.0   .     S
V70     V72    10.0   1_554     S
V70     V71    10.0   .     S
V71     V72    10.0   .     S
V72     V64    9.999   1_556     S
V72     V67    10.0   1_556     S
V72     V70    10.0   1_556     S
V73     V76    10.0   .     S
V73     V74    10.0   .     S
V73     V75    10.0   1_554     S
V73     V81    9.999   1_554     S
V73     V78    10.0   1_554     S
V73     V79    9.999   .     S
V73     V36    10.001   1_554     S
V74     V77    10.0   .     S
V74     V75    10.0   .     S
V74     V79    9.999   .     S
V74     V76    10.0   .     S
V74     V80    9.999   .     S
V75     V78    10.0   .     S
V75     V73    10.0   1_556     S
V75     V80    9.999   .     S
V75     V77    10.0   .     S
V75     V81    9.999   .     S
V76     V83    9.999   .     S
V76     V78    10.0   1_554     S
V76     V77    10.0   .     S
V76     V82    9.999   .     S
V76     V4    10.001   1_655     S
V77     V84    9.999   .     S
V77     V78    10.0   .     S
V77     V83    9.999   .     S
V77     V5    10.001   1_655     S
V78     V73    10.0   1_556     S
V78     V82    9.999   1_556     S
V78     V76    10.0   1_556     S
V78     V84    9.999   .     S
V78     V6    10.001   1_655     S
V79     V81    10.0   1_554     S
V79     V80    10.0   .     S
V79     V82    10.0   .     S
V79     V83    10.0   .     S
V79     V91    10.001   .     S
V80     V81    10.0   .     S
V80     V83    10.0   .     S
V80     V84    10.0   .     S
V80     V92    10.001   .     S
V81     V73    9.999   1_556     S
V81     V79    10.0   1_556     S
V81     V84    10.0   .     S
V81     V82    10.0   1_556     S
V81     V93    10.001   .     S
V82     V64    10.001   1_545     S
V82     V78    9.999   1_554     S
V82     V81    10.0   1_554     S
V82     V83    10.0   .     S
V82     V84    10.0   1_554     S
V83     V65    10.001   1_545     S
V83     V84    10.0   .     S
V84     V66    10.001   1_545     S
V84     V82    10.0   1_556     S
V85     V92    9.999   .     S
V85     V87    10.0   1_554     S
V85     V86    10.0   .     S
V85     V88    10.0   1_545     S
V85     V89    10.0   1_545     S
V85     V91    9.999   .     S
V85     V104    10.001   .     S
V86     V93    9.999   .     S
V86     V87    10.0   .     S
V86     V89    10.0   1_545     S
V86     V90    10.0   1_545     S
V86     V92    9.999   .     S
V86     V105    10.001   .     S
V87     V91    9.999   1_556     S
V87     V85    10.0   1_556     S
V87     V90    10.0   1_545     S
V87     V88    10.0   1_546     S
V87     V93    9.999   .     S
V87     V103    10.001   1_556     S
V88     V85    10.0   1_565     S
V88     V87    10.0   1_564     S
V88     V90    10.0   1_554     S
V88     V89    10.0   .     S
V88     V94    9.999   .     S
V88     V95    9.999   .     S
V89     V86    10.0   1_565     S
V89     V85    10.0   1_565     S
V89     V90    10.0   .     S
V89     V95    9.999   .     S
V89     V96    9.999   .     S
V90     V87    10.0   1_565     S
V90     V86    10.0   1_565     S
V90     V88    10.0   1_556     S
V90     V96    9.999   .     S
V90     V94    9.999   1_556     S
V91     V87    9.999   1_554     S
V91     V92    10.0   .     S
V91     V93    10.0   1_554     S
V91     V94    10.0   1_545     S
V91     V95    10.0   1_545     S
V92     V93    10.0   .     S
V92     V95    10.0   1_545     S
V92     V96    10.0   1_545     S
V93     V91    10.0   1_556     S
V93     V96    10.0   1_545     S
V93     V94    10.0   1_546     S
V94     V91    10.0   1_565     S
V94     V93    10.0   1_564     S
V94     V95    10.0   .     S
V94     V96    10.0   1_554     S
V94     V90    9.999   1_554     S
V94     V63    10.001   1_554     S
V95     V92    10.0   1_565     S
V95     V91    10.0   1_565     S
V95     V96    10.0   .     S
V96     V93    10.0   1_565     S
V96     V92    10.0   1_565     S
V96     V94    10.0   1_556     S
V97     V98    10.0   .     S
V97     V99    10.0   1_554     S
V97     V106    9.999   .     S
V97     V100    10.0   .     S
V97     V102    10.0   1_554     S
V97     V108    9.999   1_554     S
V98     V99    10.0   .     S
V98     V107    9.999   .     S
V98     V101    10.0   .     S
V98     V100    10.0   .     S
V98     V106    9.999   .     S
V99     V97    10.0   1_556     S
V99     V108    9.999   .     S
V99     V102    10.0   .     S
V99     V101    10.0   .     S
V99     V107    9.999   .     S
V100     V103    9.999   .     S
V100     V102    10.0   1_554     S
V100     V101    10.0   .     S
V100     V104    9.999   .     S
V101     V104    9.999   .     S
V101     V102    10.0   .     S
V101     V105    9.999   .     S
V102     V97    10.0   1_556     S
V102     V105    9.999   .     S
V102     V100    10.0   1_556     S
V102     V103    9.999   1_556     S
V103     V87    10.001   1_554     S
V103     V102    9.999   1_554     S
V103     V104    10.0   .     S
V103     V105    10.0   1_554     S
V103     V106    10.0   .     S
V103     V108    10.0   1_554     S
V104     V105    10.0   .     S
V104     V107    10.0   .     S
V104     V106    10.0   .     S
V105     V103    10.0   1_556     S
V105     V108    10.0   .     S
V105     V107    10.0   .     S
V106     V40    10.001   1_545     S
V106     V108    10.0   1_554     S
V106     V107    10.0   .     S
V107     V41    10.001   1_545     S
V107     V108    10.0   .     S
V108     V42    10.001   1_545     S
V108     V103    10.0   1_556     S
V108     V97    9.999   1_556     S
V108     V106    10.0   1_556     S
