data_wnv
_audit_creation_date              2019-12-31
_audit_creation_method            'Pymatgen'
_symmetry_space_group_name_H-M    'P1'
_symmetry_Int_Tables_number       1
loop_
_symmetry_equiv_pos_as_xyz
  x,y,z
_cell_length_a                    73.0588
_cell_length_b                    73.0588
_cell_length_c                    30.0
_cell_angle_alpha                 90.0
_cell_angle_beta                 90.0
_cell_angle_gamma                 120.0
loop_
_atom_site_label
_atom_site_type_symbol
_atom_site_fract_x
_atom_site_fract_y
_atom_site_fract_z
V1     V     0.5887   0.8536   0.2222
V2     V     0.5887   0.8536   0.5556
V3     V     0.5887   0.8536   0.8889
V4     V     0.5203   0.9221   0.0556
V5     V     0.5203   0.9221   0.3889
V6     V     0.5203   0.9221   0.7222
V7     V     0.813   0.0684   0.0
V8     V     0.813   0.0684   0.3333
V9     V     0.813   0.0684   0.6667
V10     V     0.7446   0.9316   0.1667
V11     V     0.7446   0.9316   0.5
V12     V     0.7446   0.9316   0.8333
V13     V     0.5982   0.0779   0.1111
V14     V     0.5982   0.0779   0.4444
V15     V     0.5982   0.0779   0.7778
V16     V     0.7351   0.1464   0.2778
V17     V     0.7351   0.1464   0.6111
V18     V     0.7351   0.1464   0.9444
V19     V     0.0684   0.813   0.1667
V20     V     0.0684   0.813   0.5
V21     V     0.0684   0.813   0.8333
V22     V     0.9316   0.7446   0.0
V23     V     0.9316   0.7446   0.3333
V24     V     0.9316   0.7446   0.6667
V25     V     0.1464   0.7351   0.2222
V26     V     0.1464   0.7351   0.5556
V27     V     0.1464   0.7351   0.8889
V28     V     0.0779   0.5982   0.0556
V29     V     0.0779   0.5982   0.3889
V30     V     0.0779   0.5982   0.7222
V31     V     0.9221   0.5203   0.1111
V32     V     0.9221   0.5203   0.4444
V33     V     0.9221   0.5203   0.7778
V34     V     0.8536   0.5887   0.2778
V35     V     0.8536   0.5887   0.6111
V36     V     0.8536   0.5887   0.9444
V37     V     0.0684   0.2554   0.0
V38     V     0.0684   0.2554   0.3333
V39     V     0.0684   0.2554   0.6667
V40     V     0.9316   0.187   0.1667
V41     V     0.9316   0.187   0.5
V42     V     0.9316   0.187   0.8333
V43     V     0.0779   0.4797   0.2222
V44     V     0.0779   0.4797   0.5556
V45     V     0.0779   0.4797   0.8889
V46     V     0.1464   0.4113   0.0556
V47     V     0.1464   0.4113   0.3889
V48     V     0.1464   0.4113   0.7222
V49     V     0.9221   0.4018   0.2778
V50     V     0.9221   0.4018   0.6111
V51     V     0.9221   0.4018   0.9444
V52     V     0.8536   0.2649   0.1111
V53     V     0.8536   0.2649   0.4444
V54     V     0.8536   0.2649   0.7778
V55     V     0.7446   0.813   0.0
V56     V     0.7446   0.813   0.3333
V57     V     0.7446   0.813   0.6667
V58     V     0.813   0.7446   0.1667
V59     V     0.813   0.7446   0.5
V60     V     0.813   0.7446   0.8333
V61     V     0.5887   0.7351   0.0556
V62     V     0.5887   0.7351   0.3889
V63     V     0.5887   0.7351   0.7222
V64     V     0.5203   0.5982   0.2222
V65     V     0.5203   0.5982   0.5556
V66     V     0.5203   0.5982   0.8889
V67     V     0.5982   0.5203   0.2778
V68     V     0.5982   0.5203   0.6111
V69     V     0.5982   0.5203   0.9444
V70     V     0.7351   0.5887   0.1111
V71     V     0.7351   0.5887   0.4444
V72     V     0.7351   0.5887   0.7778
V73     V     0.4797   0.4018   0.1111
V74     V     0.4797   0.4018   0.4444
V75     V     0.4797   0.4018   0.7778
V76     V     0.4113   0.2649   0.2778
V77     V     0.4113   0.2649   0.6111
V78     V     0.4113   0.2649   0.9444
V79     V     0.2649   0.4113   0.2222
V80     V     0.2649   0.4113   0.5556
V81     V     0.2649   0.4113   0.8889
V82     V     0.4018   0.4797   0.0556
V83     V     0.4018   0.4797   0.3889
V84     V     0.4018   0.4797   0.7222
V85     V     0.2554   0.187   0.0
V86     V     0.2554   0.187   0.3333
V87     V     0.2554   0.187   0.6667
V88     V     0.187   0.2554   0.1667
V89     V     0.187   0.2554   0.5
V90     V     0.187   0.2554   0.8333
V91     V     0.4797   0.0779   0.2778
V92     V     0.4797   0.0779   0.6111
V93     V     0.4797   0.0779   0.9444
V94     V     0.4113   0.1464   0.1111
V95     V     0.4113   0.1464   0.4444
V96     V     0.4113   0.1464   0.7778
V97     V     0.2554   0.0684   0.1667
V98     V     0.2554   0.0684   0.5
V99     V     0.2554   0.0684   0.8333
V100     V     0.187   0.9316   0.0
V101     V     0.187   0.9316   0.3333
V102     V     0.187   0.9316   0.6667
V103     V     0.2649   0.8536   0.0556
V104     V     0.2649   0.8536   0.3889
V105     V     0.2649   0.8536   0.7222
V106     V     0.4018   0.9221   0.2222
V107     V     0.4018   0.9221   0.5556
V108     V     0.4018   0.9221   0.8889
loop_
_geom_bond_atom_site_label_1
_geom_bond_atom_site_label_2
_geom_bond_distance
_geom_bond_site_symmetry_2
_ccdc_geom_bond_type
V1     V61    10.001   .     S
V1     V62    10.001   .     S
V1     V4    9.999   .     S
V1     V5    9.999   .     S
V1     V3    10.0   1_554     S
V1     V2    10.0   .     S
V1     V10    10.0   .     S
V2     V62    10.001   .     S
V2     V63    10.001   .     S
V2     V5    9.999   .     S
V2     V6    9.999   .     S
V2     V3    10.0   .     S
V2     V11    10.0   .     S
V3     V63    10.001   .     S
V3     V61    10.001   1_556     S
V3     V6    9.999   .     S
V3     V4    9.999   1_556     S
V3     V1    10.0   1_556     S
V3     V12    10.0   .     S
V4     V106    10.001   .     S
V4     V108    10.001   1_554     S
V4     V13    10.0   1_565     S
V4     V3    9.999   1_554     S
V4     V5    10.0   .     S
V4     V6    10.0   1_554     S
V5     V107    10.001   .     S
V5     V106    10.001   .     S
V5     V14    10.0   1_565     S
V5     V6    10.0   .     S
V6     V108    10.001   .     S
V6     V107    10.001   .     S
V6     V15    10.0   1_565     S
V6     V4    10.0   1_556     S
V7     V42    10.001   1_554     S
V7     V40    10.001   .     S
V7     V10    9.999   1_545     S
V7     V8    10.0   .     S
V7     V9    10.0   1_554     S
V7     V12    9.999   1_544     S
V7     V18    10.0   1_554     S
V8     V40    10.001   .     S
V8     V41    10.001   .     S
V8     V11    9.999   1_545     S
V8     V9    10.0   .     S
V8     V10    9.999   1_545     S
V8     V16    10.0   .     S
V9     V41    10.001   .     S
V9     V42    10.001   .     S
V9     V12    9.999   1_545     S
V9     V7    10.0   1_556     S
V9     V11    9.999   1_545     S
V9     V17    10.0   .     S
V10     V56    10.001   .     S
V10     V55    10.001   .     S
V10     V7    9.999   1_565     S
V10     V8    9.999   1_565     S
V10     V12    10.0   1_554     S
V10     V11    10.0   .     S
V11     V57    10.001   .     S
V11     V56    10.001   .     S
V11     V8    9.999   1_565     S
V11     V9    9.999   1_565     S
V11     V12    10.0   .     S
V12     V55    10.001   1_556     S
V12     V57    10.001   .     S
V12     V9    9.999   1_565     S
V12     V7    9.999   1_566     S
V12     V10    10.0   1_556     S
V13     V4    10.0   1_545     S
V13     V18    9.999   1_554     S
V13     V16    9.999   .     S
V13     V14    10.0   .     S
V13     V15    10.0   1_554     S
V13     V93    10.001   1_554     S
V13     V91    10.001   .     S
V14     V5    10.0   1_545     S
V14     V16    9.999   .     S
V14     V17    9.999   .     S
V14     V15    10.0   .     S
V14     V91    10.001   .     S
V14     V92    10.001   .     S
V15     V6    10.0   1_545     S
V15     V17    9.999   .     S
V15     V18    9.999   .     S
V15     V13    10.0   1_556     S
V15     V92    10.001   .     S
V15     V93    10.001   .     S
V16     V53    10.001   .     S
V16     V52    10.001   .     S
V16     V18    10.0   1_554     S
V16     V17    10.0   .     S
V17     V54    10.001   .     S
V17     V53    10.001   .     S
V17     V18    10.0   .     S
V18     V52    10.001   1_556     S
V18     V54    10.001   .     S
V18     V7    10.0   1_556     S
V18     V13    9.999   1_556     S
V18     V16    10.0   1_556     S
V19     V25    10.0   .     S
V19     V22    9.999   1_455     S
V19     V21    10.0   1_554     S
V19     V20    10.0   .     S
V19     V23    9.999   1_455     S
V19     V101    10.001   .     S
V19     V100    10.001   .     S
V20     V26    10.0   .     S
V20     V23    9.999   1_455     S
V20     V21    10.0   .     S
V20     V24    9.999   1_455     S
V20     V102    10.001   .     S
V20     V101    10.001   .     S
V21     V27    10.0   .     S
V21     V24    9.999   1_455     S
V21     V19    10.0   1_556     S
V21     V22    9.999   1_456     S
V21     V100    10.001   1_556     S
V21     V102    10.001   .     S
V22     V60    10.001   1_554     S
V22     V58    10.001   .     S
V22     V19    9.999   1_655     S
V22     V21    9.999   1_654     S
V22     V23    10.0   .     S
V22     V24    10.0   1_554     S
V22     V36    10.0   1_554     S
V23     V58    10.001   .     S
V23     V59    10.001   .     S
V23     V20    9.999   1_655     S
V23     V19    9.999   1_655     S
V23     V24    10.0   .     S
V23     V34    10.0   .     S
V24     V59    10.001   .     S
V24     V60    10.001   .     S
V24     V21    9.999   1_655     S
V24     V20    9.999   1_655     S
V24     V22    10.0   1_556     S
V24     V35    10.0   .     S
V25     V28    9.999   .     S
V25     V29    9.999   .     S
V25     V27    10.0   1_554     S
V25     V26    10.0   .     S
V25     V103    10.001   .     S
V25     V104    10.001   .     S
V26     V29    9.999   .     S
V26     V30    9.999   .     S
V26     V27    10.0   .     S
V26     V104    10.001   .     S
V26     V105    10.001   .     S
V27     V30    9.999   .     S
V27     V28    9.999   1_556     S
V27     V25    10.0   1_556     S
V27     V105    10.001   .     S
V27     V103    10.001   1_556     S
V28     V43    10.001   .     S
V28     V45    10.001   1_554     S
V28     V27    9.999   1_554     S
V28     V29    10.0   .     S
V28     V30    10.0   1_554     S
V28     V31    10.0   1_455     S
V29     V44    10.001   .     S
V29     V43    10.001   .     S
V29     V30    10.0   .     S
V29     V32    10.0   1_455     S
V30     V45    10.001   .     S
V30     V44    10.001   .     S
V30     V28    10.0   1_556     S
V30     V33    10.0   1_455     S
V31     V28    10.0   1_655     S
V31     V36    9.999   1_554     S
V31     V34    9.999   .     S
V31     V32    10.0   .     S
V31     V33    10.0   1_554     S
V31     V51    10.001   1_554     S
V31     V49    10.001   .     S
V32     V29    10.0   1_655     S
V32     V34    9.999   .     S
V32     V35    9.999   .     S
V32     V33    10.0   .     S
V32     V49    10.001   .     S
V32     V50    10.001   .     S
V33     V30    10.0   1_655     S
V33     V35    9.999   .     S
V33     V36    9.999   .     S
V33     V31    10.0   1_556     S
V33     V50    10.001   .     S
V33     V51    10.001   .     S
V34     V71    10.001   .     S
V34     V70    10.001   .     S
V34     V36    10.0   1_554     S
V34     V35    10.0   .     S
V35     V72    10.001   .     S
V35     V71    10.001   .     S
V35     V36    10.0   .     S
V36     V70    10.001   1_556     S
V36     V72    10.001   .     S
V36     V22    10.0   1_556     S
V36     V31    9.999   1_556     S
V36     V34    10.0   1_556     S
V37     V90    10.001   1_554     S
V37     V88    10.001   .     S
V37     V42    9.999   1_454     S
V37     V38    10.0   .     S
V37     V39    10.0   1_554     S
V37     V40    9.999   1_455     S
V37     V46    10.0   .     S
V38     V88    10.001   .     S
V38     V89    10.001   .     S
V38     V40    9.999   1_455     S
V38     V39    10.0   .     S
V38     V41    9.999   1_455     S
V38     V47    10.0   .     S
V39     V89    10.001   .     S
V39     V90    10.001   .     S
V39     V41    9.999   1_455     S
V39     V37    10.0   1_556     S
V39     V42    9.999   1_455     S
V39     V48    10.0   .     S
V40     V52    10.0   .     S
V40     V38    9.999   1_655     S
V40     V37    9.999   1_655     S
V40     V42    10.0   1_554     S
V40     V41    10.0   .     S
V41     V53    10.0   .     S
V41     V39    9.999   1_655     S
V41     V38    9.999   1_655     S
V41     V42    10.0   .     S
V42     V7    10.001   1_556     S
V42     V54    10.0   .     S
V42     V37    9.999   1_656     S
V42     V39    9.999   1_655     S
V42     V40    10.0   1_556     S
V43     V47    9.999   .     S
V43     V46    9.999   .     S
V43     V45    10.0   1_554     S
V43     V44    10.0   .     S
V43     V49    10.0   1_455     S
V44     V48    9.999   .     S
V44     V47    9.999   .     S
V44     V45    10.0   .     S
V44     V50    10.0   1_455     S
V45     V28    10.001   1_556     S
V45     V46    9.999   1_556     S
V45     V48    9.999   .     S
V45     V43    10.0   1_556     S
V45     V51    10.0   1_455     S
V46     V45    9.999   1_554     S
V46     V47    10.0   .     S
V46     V48    10.0   1_554     S
V46     V79    10.001   .     S
V46     V81    10.001   1_554     S
V47     V48    10.0   .     S
V47     V80    10.001   .     S
V47     V79    10.001   .     S
V48     V46    10.0   1_556     S
V48     V81    10.001   .     S
V48     V80    10.001   .     S
V49     V43    10.0   1_655     S
V49     V53    9.999   .     S
V49     V52    9.999   .     S
V49     V51    10.0   1_554     S
V49     V50    10.0   .     S
V50     V44    10.0   1_655     S
V50     V54    9.999   .     S
V50     V53    9.999   .     S
V50     V51    10.0   .     S
V51     V31    10.001   1_556     S
V51     V45    10.0   1_655     S
V51     V52    9.999   1_556     S
V51     V54    9.999   .     S
V51     V49    10.0   1_556     S
V52     V18    10.001   1_554     S
V52     V51    9.999   1_554     S
V52     V53    10.0   .     S
V52     V54    10.0   1_554     S
V53     V54    10.0   .     S
V54     V52    10.0   1_556     S
V55     V12    10.001   1_554     S
V55     V61    10.0   .     S
V55     V60    9.999   1_554     S
V55     V56    10.0   .     S
V55     V57    10.0   1_554     S
V55     V58    9.999   .     S
V56     V62    10.0   .     S
V56     V58    9.999   .     S
V56     V57    10.0   .     S
V56     V59    9.999   .     S
V57     V63    10.0   .     S
V57     V59    9.999   .     S
V57     V55    10.0   1_556     S
V57     V60    9.999   .     S
V58     V60    10.0   1_554     S
V58     V59    10.0   .     S
V58     V70    10.0   .     S
V59     V60    10.0   .     S
V59     V71    10.0   .     S
V60     V22    10.001   1_556     S
V60     V55    9.999   1_556     S
V60     V58    10.0   1_556     S
V60     V72    10.0   .     S
V61     V3    10.001   1_554     S
V61     V62    10.0   .     S
V61     V63    10.0   1_554     S
V61     V66    9.999   1_554     S
V61     V64    9.999   .     S
V62     V63    10.0   .     S
V62     V64    9.999   .     S
V62     V65    9.999   .     S
V63     V61    10.0   1_556     S
V63     V65    9.999   .     S
V63     V66    9.999   .     S
V64     V82    10.001   .     S
V64     V83    10.001   .     S
V64     V66    10.0   1_554     S
V64     V65    10.0   .     S
V64     V67    10.0   .     S
V65     V83    10.001   .     S
V65     V84    10.001   .     S
V65     V66    10.0   .     S
V65     V68    10.0   .     S
V66     V84    10.001   .     S
V66     V82    10.001   1_556     S
V66     V61    9.999   1_556     S
V66     V64    10.0   1_556     S
V66     V69    10.0   .     S
V67     V71    9.999   .     S
V67     V69    10.0   1_554     S
V67     V68    10.0   .     S
V67     V70    9.999   .     S
V67     V74    10.001   .     S
V67     V73    10.001   .     S
V68     V72    9.999   .     S
V68     V69    10.0   .     S
V68     V71    9.999   .     S
V68     V75    10.001   .     S
V68     V74    10.001   .     S
V69     V70    9.999   1_556     S
V69     V67    10.0   1_556     S
V69     V72    9.999   .     S
V69     V73    10.001   1_556     S
V69     V75    10.001   .     S
V70     V36    10.001   1_554     S
V70     V69    9.999   1_554     S
V70     V71    10.0   .     S
V70     V72    10.0   1_554     S
V71     V72    10.0   .     S
V72     V70    10.0   1_556     S
V73     V69    10.001   1_554     S
V73     V78    9.999   1_554     S
V73     V76    9.999   .     S
V73     V74    10.0   .     S
V73     V75    10.0   1_554     S
V73     V82    10.0   .     S
V74     V76    9.999   .     S
V74     V77    9.999   .     S
V74     V75    10.0   .     S
V74     V83    10.0   .     S
V75     V77    9.999   .     S
V75     V78    9.999   .     S
V75     V73    10.0   1_556     S
V75     V84    10.0   .     S
V76     V86    10.0   .     S
V76     V78    10.0   1_554     S
V76     V77    10.0   .     S
V76     V95    10.001   .     S
V76     V94    10.001   .     S
V77     V87    10.0   .     S
V77     V78    10.0   .     S
V77     V96    10.001   .     S
V77     V95    10.001   .     S
V78     V85    10.0   1_556     S
V78     V73    9.999   1_556     S
V78     V76    10.0   1_556     S
V78     V94    10.001   1_556     S
V78     V96    10.001   .     S
V79     V83    9.999   .     S
V79     V81    10.0   1_554     S
V79     V80    10.0   .     S
V79     V82    9.999   .     S
V79     V88    10.0   .     S
V80     V84    9.999   .     S
V80     V81    10.0   .     S
V80     V83    9.999   .     S
V80     V89    10.0   .     S
V81     V46    10.001   1_556     S
V81     V82    9.999   1_556     S
V81     V79    10.0   1_556     S
V81     V84    9.999   .     S
V81     V90    10.0   .     S
V82     V66    10.001   1_554     S
V82     V81    9.999   1_554     S
V82     V83    10.0   .     S
V82     V84    10.0   1_554     S
V83     V84    10.0   .     S
V84     V82    10.0   1_556     S
V85     V99    10.001   1_554     S
V85     V97    10.001   .     S
V85     V78    10.0   1_554     S
V85     V88    9.999   .     S
V85     V86    10.0   .     S
V85     V87    10.0   1_554     S
V85     V90    9.999   1_554     S
V86     V97    10.001   .     S
V86     V98    10.001   .     S
V86     V89    9.999   .     S
V86     V87    10.0   .     S
V86     V88    9.999   .     S
V87     V98    10.001   .     S
V87     V99    10.001   .     S
V87     V90    9.999   .     S
V87     V85    10.0   1_556     S
V87     V89    9.999   .     S
V88     V90    10.0   1_554     S
V88     V89    10.0   .     S
V89     V90    10.0   .     S
V90     V37    10.001   1_556     S
V90     V85    9.999   1_556     S
V90     V88    10.0   1_556     S
V91     V95    9.999   .     S
V91     V93    10.0   1_554     S
V91     V92    10.0   .     S
V91     V94    9.999   .     S
V91     V106    10.0   1_545     S
V92     V96    9.999   .     S
V92     V93    10.0   .     S
V92     V95    9.999   .     S
V92     V107    10.0   1_545     S
V93     V13    10.001   1_556     S
V93     V94    9.999   1_556     S
V93     V91    10.0   1_556     S
V93     V96    9.999   .     S
V93     V108    10.0   1_545     S
V94     V78    10.001   1_554     S
V94     V97    10.0   .     S
V94     V93    9.999   1_554     S
V94     V95    10.0   .     S
V94     V96    10.0   1_554     S
V95     V98    10.0   .     S
V95     V96    10.0   .     S
V96     V99    10.0   .     S
V96     V94    10.0   1_556     S
V97     V101    9.999   1_545     S
V97     V99    10.0   1_554     S
V97     V98    10.0   .     S
V97     V100    9.999   1_545     S
V98     V102    9.999   1_545     S
V98     V99    10.0   .     S
V98     V101    9.999   1_545     S
V99     V85    10.001   1_556     S
V99     V100    9.999   1_546     S
V99     V97    10.0   1_556     S
V99     V102    9.999   1_545     S
V100     V21    10.001   1_554     S
V100     V103    10.0   .     S
V100     V99    9.999   1_564     S
V100     V97    9.999   1_565     S
V100     V101    10.0   .     S
V100     V102    10.0   1_554     S
V101     V104    10.0   .     S
V101     V97    9.999   1_565     S
V101     V98    9.999   1_565     S
V101     V102    10.0   .     S
V102     V105    10.0   .     S
V102     V98    9.999   1_565     S
V102     V99    9.999   1_565     S
V102     V100    10.0   1_556     S
V103     V104    10.0   .     S
V103     V105    10.0   1_554     S
V103     V108    9.999   1_554     S
V103     V106    9.999   .     S
V103     V27    10.001   1_554     S
V104     V105    10.0   .     S
V104     V106    9.999   .     S
V104     V107    9.999   .     S
V105     V103    10.0   1_556     S
V105     V107    9.999   .     S
V105     V108    9.999   .     S
V106     V91    10.0   1_565     S
V106     V108    10.0   1_554     S
V106     V107    10.0   .     S
V107     V92    10.0   1_565     S
V107     V108    10.0   .     S
V108     V4    10.001   1_556     S
V108     V93    10.0   1_565     S
V108     V103    9.999   1_556     S
V108     V106    10.0   1_556     S
