data_wnw
_audit_creation_date              2019-12-31
_audit_creation_method            'Pymatgen'
_symmetry_space_group_name_H-M    'P1'
_symmetry_Int_Tables_number       1
loop_
_symmetry_equiv_pos_as_xyz
  x,y,z
_cell_length_a                    50.0616
_cell_length_b                    50.0616
_cell_length_c                    34.2242
_cell_angle_alpha                 90.0
_cell_angle_beta                 90.0
_cell_angle_gamma                 120.0
loop_
_atom_site_label
_atom_site_type_symbol
_atom_site_fract_x
_atom_site_fract_y
_atom_site_fract_z
V1     V     0.2736   0.8298   0.0833
V2     V     0.2736   0.8298   0.5833
V3     V     0.1631   0.9403   0.0
V4     V     0.1631   0.9403   0.5
V5     V     0.1702   0.7264   0.3333
V6     V     0.1702   0.7264   0.8333
V7     V     0.0597   0.8369   0.25
V8     V     0.0597   0.8369   0.75
V9     V     0.8895   0.4964   0.1667
V10     V     0.8895   0.4964   0.6667
V11     V     0.1105   0.607   0.0833
V12     V     0.1105   0.607   0.5833
V13     V     0.8895   0.393   0.4167
V14     V     0.8895   0.393   0.9167
V15     V     0.1105   0.5036   0.3333
V16     V     0.1105   0.5036   0.8333
V17     V     0.8369   0.0597   0.0
V18     V     0.8369   0.0597   0.5
V19     V     0.7264   0.1702   0.4167
V20     V     0.7264   0.1702   0.9167
V21     V     0.9403   0.1631   0.25
V22     V     0.9403   0.1631   0.75
V23     V     0.8298   0.2736   0.1667
V24     V     0.8298   0.2736   0.6667
V25     V     0.2736   0.4439   0.3333
V26     V     0.2736   0.4439   0.8333
V27     V     0.1631   0.2228   0.25
V28     V     0.1631   0.2228   0.75
V29     V     0.1702   0.4439   0.0833
V30     V     0.1702   0.4439   0.5833
V31     V     0.0597   0.2228   0.0
V32     V     0.0597   0.2228   0.5
V33     V     0.5036   0.1105   0.4167
V34     V     0.5036   0.1105   0.9167
V35     V     0.393   0.8895   0.3333
V36     V     0.393   0.8895   0.8333
V37     V     0.607   0.1105   0.1667
V38     V     0.607   0.1105   0.6667
V39     V     0.4964   0.8895   0.0833
V40     V     0.4964   0.8895   0.5833
V41     V     0.4439   0.2736   0.4167
V42     V     0.4439   0.2736   0.9167
V43     V     0.2228   0.1631   0.0
V44     V     0.2228   0.1631   0.5
V45     V     0.2228   0.0597   0.25
V46     V     0.2228   0.0597   0.75
V47     V     0.4439   0.1702   0.1667
V48     V     0.4439   0.1702   0.6667
V49     V     0.393   0.5036   0.0833
V50     V     0.393   0.5036   0.5833
V51     V     0.5036   0.393   0.1667
V52     V     0.5036   0.393   0.6667
V53     V     0.607   0.4964   0.4167
V54     V     0.607   0.4964   0.9167
V55     V     0.4964   0.607   0.3333
V56     V     0.4964   0.607   0.8333
V57     V     0.8298   0.5561   0.4167
V58     V     0.8298   0.5561   0.9167
V59     V     0.9403   0.7772   0.0
V60     V     0.9403   0.7772   0.5
V61     V     0.7264   0.5561   0.1667
V62     V     0.7264   0.5561   0.6667
V63     V     0.8369   0.7772   0.25
V64     V     0.8369   0.7772   0.75
V65     V     0.5561   0.7264   0.0833
V66     V     0.5561   0.7264   0.5833
V67     V     0.7772   0.8369   0.0
V68     V     0.7772   0.8369   0.5
V69     V     0.7772   0.9403   0.25
V70     V     0.7772   0.9403   0.75
V71     V     0.5561   0.8298   0.3333
V72     V     0.5561   0.8298   0.8333
loop_
_geom_bond_atom_site_label_1
_geom_bond_atom_site_label_2
_geom_bond_distance
_geom_bond_site_symmetry_2
_ccdc_geom_bond_type
V1     V35    10.0   .     S
V1     V39    10.0   .     S
V1     V36    10.0   1_554     S
V1     V3    10.0   .     S
V1     V5    10.0   .     S
V1     V6    10.0   1_554     S
V1     V11    10.0   .     S
V2     V36    10.0   .     S
V2     V40    10.0   .     S
V2     V35    10.0   .     S
V2     V4    10.0   .     S
V2     V6    10.0   .     S
V2     V5    10.0   .     S
V2     V12    10.0   .     S
V3     V59    10.0   1_455     S
V3     V8    10.0   1_554     S
V3     V7    10.0   .     S
V3     V46    10.0   1_564     S
V3     V45    10.0   1_565     S
V3     V43    10.0   1_565     S
V4     V60    10.0   1_455     S
V4     V7    10.0   .     S
V4     V8    10.0   .     S
V4     V45    10.0   1_565     S
V4     V46    10.0   1_565     S
V4     V44    10.0   1_565     S
V5     V35    10.0   .     S
V5     V7    10.0   .     S
V5     V12    10.0   .     S
V5     V15    10.0   .     S
V5     V11    10.0   .     S
V6     V36    10.0   .     S
V6     V8    10.0   .     S
V6     V1    10.0   1_556     S
V6     V11    10.0   1_556     S
V6     V16    10.0   .     S
V6     V12    10.0   .     S
V7     V59    10.0   1_455     S
V7     V60    10.0   1_455     S
V7     V63    10.0   1_455     S
V7     V45    10.0   1_565     S
V8     V60    10.0   1_455     S
V8     V59    10.0   1_456     S
V8     V64    10.0   1_455     S
V8     V3    10.0   1_556     S
V8     V46    10.0   1_565     S
V9     V11    10.0   1_655     S
V9     V14    10.0   1_554     S
V9     V13    10.0   .     S
V9     V57    10.0   .     S
V9     V58    10.0   1_554     S
V9     V61    10.0   .     S
V9     V23    10.0   .     S
V10     V12    10.0   1_655     S
V10     V13    10.0   .     S
V10     V14    10.0   .     S
V10     V58    10.0   .     S
V10     V57    10.0   .     S
V10     V62    10.0   .     S
V10     V24    10.0   .     S
V11     V29    10.0   .     S
V11     V6    10.0   1_554     S
V11     V9    10.0   1_455     S
V11     V15    10.0   .     S
V11     V16    10.0   1_554     S
V12     V30    10.0   .     S
V12     V10    10.0   1_455     S
V12     V16    10.0   .     S
V12     V15    10.0   .     S
V13     V15    10.0   1_655     S
V13     V57    10.0   .     S
V13     V24    10.0   .     S
V13     V23    10.0   .     S
V13     V19    10.0   .     S
V14     V16    10.0   1_655     S
V14     V9    10.0   1_556     S
V14     V58    10.0   .     S
V14     V23    10.0   1_556     S
V14     V24    10.0   .     S
V14     V20    10.0   .     S
V15     V29    10.0   .     S
V15     V25    10.0   .     S
V15     V30    10.0   .     S
V15     V13    10.0   1_455     S
V16     V30    10.0   .     S
V16     V26    10.0   .     S
V16     V29    10.0   1_556     S
V16     V14    10.0   1_455     S
V16     V11    10.0   1_556     S
V17     V69    10.0   1_545     S
V17     V67    10.0   1_545     S
V17     V70    10.0   1_544     S
V17     V31    10.0   1_655     S
V17     V20    10.0   1_554     S
V17     V22    10.0   1_554     S
V17     V21    10.0   .     S
V18     V70    10.0   1_545     S
V18     V68    10.0   1_545     S
V18     V69    10.0   1_545     S
V18     V32    10.0   1_655     S
V18     V19    10.0   .     S
V18     V21    10.0   .     S
V18     V22    10.0   .     S
V19     V37    10.0   .     S
V19     V33    10.0   .     S
V19     V38    10.0   .     S
V19     V24    10.0   .     S
V19     V23    10.0   .     S
V20     V38    10.0   .     S
V20     V34    10.0   .     S
V20     V37    10.0   1_556     S
V20     V17    10.0   1_556     S
V20     V23    10.0   1_556     S
V20     V24    10.0   .     S
V21     V69    10.0   1_545     S
V21     V32    10.0   1_655     S
V21     V27    10.0   1_655     S
V21     V31    10.0   1_655     S
V21     V23    10.0   .     S
V22     V70    10.0   1_545     S
V22     V31    10.0   1_656     S
V22     V28    10.0   1_655     S
V22     V32    10.0   1_655     S
V22     V24    10.0   .     S
V22     V17    10.0   1_556     S
V23     V14    10.0   1_554     S
V23     V37    10.0   .     S
V23     V20    10.0   1_554     S
V24     V38    10.0   .     S
V25     V27    10.0   .     S
V25     V29    10.0   .     S
V25     V30    10.0   .     S
V25     V50    10.0   .     S
V25     V49    10.0   .     S
V25     V55    10.0   .     S
V26     V28    10.0   .     S
V26     V30    10.0   .     S
V26     V29    10.0   1_556     S
V26     V49    10.0   1_556     S
V26     V50    10.0   .     S
V26     V56    10.0   .     S
V27     V21    10.0   1_455     S
V27     V32    10.0   .     S
V27     V31    10.0   .     S
V27     V43    10.0   .     S
V27     V44    10.0   .     S
V27     V45    10.0   .     S
V28     V22    10.0   1_455     S
V28     V31    10.0   1_556     S
V28     V32    10.0   .     S
V28     V44    10.0   .     S
V28     V43    10.0   1_556     S
V28     V46    10.0   .     S
V29     V16    10.0   1_554     S
V29     V26    10.0   1_554     S
V29     V31    10.0   .     S
V29     V49    10.0   .     S
V30     V32    10.0   .     S
V30     V50    10.0   .     S
V31     V22    10.0   1_454     S
V31     V21    10.0   1_455     S
V31     V17    10.0   1_455     S
V31     V28    10.0   1_554     S
V31     V43    10.0   .     S
V32     V21    10.0   1_455     S
V32     V22    10.0   1_455     S
V32     V18    10.0   1_455     S
V32     V44    10.0   .     S
V33     V35    10.0   1_545     S
V33     V37    10.0   .     S
V33     V38    10.0   .     S
V33     V48    10.0   .     S
V33     V41    10.0   .     S
V33     V47    10.0   .     S
V34     V36    10.0   1_545     S
V34     V38    10.0   .     S
V34     V37    10.0   1_556     S
V34     V47    10.0   1_556     S
V34     V42    10.0   .     S
V34     V48    10.0   .     S
V35     V71    10.0   .     S
V35     V33    10.0   1_565     S
V35     V39    10.0   .     S
V35     V40    10.0   .     S
V36     V1    10.0   1_556     S
V36     V72    10.0   .     S
V36     V34    10.0   1_565     S
V36     V40    10.0   .     S
V36     V39    10.0   1_556     S
V37     V20    10.0   1_554     S
V37     V39    10.0   1_545     S
V37     V34    10.0   1_554     S
V37     V47    10.0   .     S
V38     V40    10.0   1_545     S
V38     V48    10.0   .     S
V39     V72    10.0   1_554     S
V39     V71    10.0   .     S
V39     V65    10.0   .     S
V39     V37    10.0   1_565     S
V39     V36    10.0   1_554     S
V40     V71    10.0   .     S
V40     V72    10.0   .     S
V40     V66    10.0   .     S
V40     V38    10.0   1_565     S
V41     V44    10.0   .     S
V41     V48    10.0   .     S
V41     V47    10.0   .     S
V41     V51    10.0   .     S
V41     V52    10.0   .     S
V41     V53    10.0   .     S
V42     V43    10.0   1_556     S
V42     V47    10.0   1_556     S
V42     V48    10.0   .     S
V42     V52    10.0   .     S
V42     V51    10.0   1_556     S
V42     V54    10.0   .     S
V43     V3    10.0   1_545     S
V43     V28    10.0   1_554     S
V43     V42    10.0   1_554     S
V43     V46    10.0   1_554     S
V43     V45    10.0   .     S
V44     V4    10.0   1_545     S
V44     V45    10.0   .     S
V44     V46    10.0   .     S
V45     V4    10.0   1_545     S
V45     V7    10.0   1_545     S
V45     V3    10.0   1_545     S
V45     V47    10.0   .     S
V46     V3    10.0   1_546     S
V46     V8    10.0   1_545     S
V46     V4    10.0   1_545     S
V46     V48    10.0   .     S
V46     V43    10.0   1_556     S
V47     V42    10.0   1_554     S
V47     V34    10.0   1_554     S
V47     V51    10.0   .     S
V48     V52    10.0   .     S
V49     V26    10.0   1_554     S
V49     V51    10.0   .     S
V49     V55    10.0   .     S
V49     V56    10.0   1_554     S
V49     V65    10.0   .     S
V50     V52    10.0   .     S
V50     V56    10.0   .     S
V50     V55    10.0   .     S
V50     V66    10.0   .     S
V51     V42    10.0   1_554     S
V51     V53    10.0   .     S
V51     V54    10.0   1_554     S
V51     V61    10.0   .     S
V52     V54    10.0   .     S
V52     V53    10.0   .     S
V52     V62    10.0   .     S
V53     V55    10.0   .     S
V53     V62    10.0   .     S
V53     V57    10.0   .     S
V53     V61    10.0   .     S
V54     V56    10.0   .     S
V54     V51    10.0   1_556     S
V54     V61    10.0   1_556     S
V54     V58    10.0   .     S
V54     V62    10.0   .     S
V55     V65    10.0   .     S
V55     V66    10.0   .     S
V55     V71    10.0   .     S
V56     V49    10.0   1_556     S
V56     V66    10.0   .     S
V56     V65    10.0   1_556     S
V56     V72    10.0   .     S
V57     V60    10.0   .     S
V57     V61    10.0   .     S
V57     V62    10.0   .     S
V58     V9    10.0   1_556     S
V58     V59    10.0   1_556     S
V58     V62    10.0   .     S
V58     V61    10.0   1_556     S
V59     V7    10.0   1_655     S
V59     V3    10.0   1_655     S
V59     V8    10.0   1_654     S
V59     V67    10.0   .     S
V59     V58    10.0   1_554     S
V59     V64    10.0   1_554     S
V59     V63    10.0   .     S
V60     V8    10.0   1_655     S
V60     V4    10.0   1_655     S
V60     V7    10.0   1_655     S
V60     V68    10.0   .     S
V60     V63    10.0   .     S
V60     V64    10.0   .     S
V61     V63    10.0   .     S
V61     V58    10.0   1_554     S
V61     V54    10.0   1_554     S
V62     V64    10.0   .     S
V63     V7    10.0   1_655     S
V63     V68    10.0   .     S
V63     V67    10.0   .     S
V63     V69    10.0   .     S
V64     V8    10.0   1_655     S
V64     V67    10.0   1_556     S
V64     V68    10.0   .     S
V64     V70    10.0   .     S
V64     V59    10.0   1_556     S
V65     V67    10.0   .     S
V65     V71    10.0   .     S
V65     V72    10.0   1_554     S
V65     V56    10.0   1_554     S
V66     V68    10.0   .     S
V66     V72    10.0   .     S
V66     V71    10.0   .     S
V67     V17    10.0   1_565     S
V67     V64    10.0   1_554     S
V67     V70    10.0   1_554     S
V67     V69    10.0   .     S
V68     V18    10.0   1_565     S
V68     V69    10.0   .     S
V68     V70    10.0   .     S
V69     V17    10.0   1_565     S
V69     V21    10.0   1_565     S
V69     V18    10.0   1_565     S
V69     V71    10.0   .     S
V70     V18    10.0   1_565     S
V70     V22    10.0   1_565     S
V70     V17    10.0   1_566     S
V70     V72    10.0   .     S
V70     V67    10.0   1_556     S
V72     V39    10.0   1_556     S
V72     V65    10.0   1_556     S
