data_wnz
_audit_creation_date              2019-12-31
_audit_creation_method            'Pymatgen'
_symmetry_space_group_name_H-M    'P1'
_symmetry_Int_Tables_number       1
loop_
_symmetry_equiv_pos_as_xyz
  x,y,z
_cell_length_a                    39.5882
_cell_length_b                    39.5882
_cell_length_c                    103.2085
_cell_angle_alpha                 90.0
_cell_angle_beta                 90.0
_cell_angle_gamma                 120.0
loop_
_atom_site_label
_atom_site_type_symbol
_atom_site_fract_x
_atom_site_fract_y
_atom_site_fract_z
V1     V     0.3333   0.3958   0.7062
V2     V     0.3333   0.8958   0.7062
V3     V     0.8333   0.3958   0.7062
V4     V     0.8333   0.8958   0.7062
V5     V     0.3958   0.3333   0.7938
V6     V     0.3958   0.8333   0.7938
V7     V     0.8958   0.3333   0.7938
V8     V     0.8958   0.8333   0.7938
V9     V     0.1667   0.0625   0.7938
V10     V     0.1667   0.5625   0.7938
V11     V     0.6667   0.0625   0.7938
V12     V     0.6667   0.5625   0.7938
V13     V     0.1042   0.4375   0.7062
V14     V     0.1042   0.9375   0.7062
V15     V     0.6042   0.4375   0.7062
V16     V     0.6042   0.9375   0.7062
V17     V     0.4375   0.1042   0.7938
V18     V     0.4375   0.6042   0.7938
V19     V     0.9375   0.1042   0.7938
V20     V     0.9375   0.6042   0.7938
V21     V     0.0625   0.1667   0.7062
V22     V     0.0625   0.6667   0.7062
V23     V     0.5625   0.1667   0.7062
V24     V     0.5625   0.6667   0.7062
V25     V     0.1667   0.1042   0.5396
V26     V     0.1667   0.6042   0.5396
V27     V     0.6667   0.1042   0.5396
V28     V     0.6667   0.6042   0.5396
V29     V     0.2291   0.2291   0.6271
V30     V     0.2291   0.7291   0.6271
V31     V     0.7291   0.2291   0.6271
V32     V     0.7291   0.7291   0.6271
V33     V     0.3958   0.0625   0.5396
V34     V     0.3958   0.5625   0.5396
V35     V     0.8958   0.0625   0.5396
V36     V     0.8958   0.5625   0.5396
V37     V     0.2709   0.0   0.6271
V38     V     0.2709   0.5   0.6271
V39     V     0.7709   0.0   0.6271
V40     V     0.7709   0.5   0.6271
V41     V     0.4375   0.3333   0.5396
V42     V     0.4375   0.8333   0.5396
V43     V     0.9375   0.3333   0.5396
V44     V     0.9375   0.8333   0.5396
V45     V     0.0   0.2709   0.6271
V46     V     0.0   0.7709   0.6271
V47     V     0.5   0.2709   0.6271
V48     V     0.5   0.7709   0.6271
V49     V     0.0625   0.1667   0.4604
V50     V     0.0625   0.6667   0.4604
V51     V     0.5625   0.1667   0.4604
V52     V     0.5625   0.6667   0.4604
V53     V     0.0   0.2291   0.3729
V54     V     0.0   0.7291   0.3729
V55     V     0.5   0.2291   0.3729
V56     V     0.5   0.7291   0.3729
V57     V     0.2291   0.0   0.3729
V58     V     0.2291   0.5   0.3729
V59     V     0.7291   0.0   0.3729
V60     V     0.7291   0.5   0.3729
V61     V     0.1042   0.4375   0.4604
V62     V     0.1042   0.9375   0.4604
V63     V     0.6042   0.4375   0.4604
V64     V     0.6042   0.9375   0.4604
V65     V     0.2709   0.2709   0.3729
V66     V     0.2709   0.7709   0.3729
V67     V     0.7709   0.2709   0.3729
V68     V     0.7709   0.7709   0.3729
V69     V     0.3333   0.3958   0.4604
V70     V     0.3333   0.8958   0.4604
V71     V     0.8333   0.3958   0.4604
V72     V     0.8333   0.8958   0.4604
V73     V     0.4375   0.3333   0.2938
V74     V     0.4375   0.8333   0.2938
V75     V     0.9375   0.3333   0.2938
V76     V     0.9375   0.8333   0.2938
V77     V     0.0625   0.3958   0.2062
V78     V     0.0625   0.8958   0.2062
V79     V     0.5625   0.3958   0.2062
V80     V     0.5625   0.8958   0.2062
V81     V     0.1042   0.1667   0.2062
V82     V     0.1042   0.6667   0.2062
V83     V     0.6042   0.1667   0.2062
V84     V     0.6042   0.6667   0.2062
V85     V     0.1667   0.1042   0.2938
V86     V     0.1667   0.6042   0.2938
V87     V     0.6667   0.1042   0.2938
V88     V     0.6667   0.6042   0.2938
V89     V     0.3333   0.4375   0.2062
V90     V     0.3333   0.9375   0.2062
V91     V     0.8333   0.4375   0.2062
V92     V     0.8333   0.9375   0.2062
V93     V     0.3958   0.0625   0.2938
V94     V     0.3958   0.5625   0.2938
V95     V     0.8958   0.0625   0.2938
V96     V     0.8958   0.5625   0.2938
V97     V     0.3958   0.3333   0.0396
V98     V     0.3958   0.8333   0.0396
V99     V     0.8958   0.3333   0.0396
V100     V     0.8958   0.8333   0.0396
V101     V     0.2709   0.2709   0.1271
V102     V     0.2709   0.7709   0.1271
V103     V     0.7709   0.2709   0.1271
V104     V     0.7709   0.7709   0.1271
V105     V     0.4375   0.1042   0.0396
V106     V     0.4375   0.6042   0.0396
V107     V     0.9375   0.1042   0.0396
V108     V     0.9375   0.6042   0.0396
V109     V     0.0   0.2291   0.1271
V110     V     0.0   0.7291   0.1271
V111     V     0.5   0.2291   0.1271
V112     V     0.5   0.7291   0.1271
V113     V     0.1667   0.0625   0.0396
V114     V     0.1667   0.5625   0.0396
V115     V     0.6667   0.0625   0.0396
V116     V     0.6667   0.5625   0.0396
V117     V     0.2291   0.0   0.1271
V118     V     0.2291   0.5   0.1271
V119     V     0.7291   0.0   0.1271
V120     V     0.7291   0.5   0.1271
V121     V     0.2291   0.2291   0.8729
V122     V     0.2291   0.7291   0.8729
V123     V     0.7291   0.2291   0.8729
V124     V     0.7291   0.7291   0.8729
V125     V     0.1042   0.1667   0.9604
V126     V     0.1042   0.6667   0.9604
V127     V     0.6042   0.1667   0.9604
V128     V     0.6042   0.6667   0.9604
V129     V     0.0   0.2709   0.8729
V130     V     0.0   0.7709   0.8729
V131     V     0.5   0.2709   0.8729
V132     V     0.5   0.7709   0.8729
V133     V     0.0625   0.3958   0.9604
V134     V     0.0625   0.8958   0.9604
V135     V     0.5625   0.3958   0.9604
V136     V     0.5625   0.8958   0.9604
V137     V     0.3333   0.4375   0.9604
V138     V     0.3333   0.9375   0.9604
V139     V     0.8333   0.4375   0.9604
V140     V     0.8333   0.9375   0.9604
V141     V     0.2709   0.0   0.8729
V142     V     0.2709   0.5   0.8729
V143     V     0.7709   0.0   0.8729
V144     V     0.7709   0.5   0.8729
loop_
_geom_bond_atom_site_label_1
_geom_bond_atom_site_label_2
_geom_bond_distance
_geom_bond_site_symmetry_2
_ccdc_geom_bond_type
V1     V5    10.0   .     S
V1     V38    10.0   .     S
V1     V13    10.0   .     S
V1     V15    10.0   .     S
V1     V24    10.0   .     S
V1     V21    10.0   .     S
V1     V29    10.0   .     S
V2     V6    10.0   .     S
V2     V37    10.0   1_565     S
V2     V14    10.0   .     S
V2     V16    10.0   .     S
V2     V23    10.0   1_565     S
V2     V22    10.0   .     S
V2     V30    10.0   .     S
V3     V7    10.0   .     S
V3     V40    10.0   .     S
V3     V15    10.0   .     S
V3     V13    10.0   1_655     S
V3     V22    10.0   1_655     S
V3     V23    10.0   .     S
V3     V31    10.0   .     S
V4     V8    10.0   .     S
V4     V39    10.0   1_565     S
V4     V16    10.0   .     S
V4     V14    10.0   1_655     S
V4     V21    10.0   1_665     S
V4     V24    10.0   .     S
V4     V32    10.0   .     S
V5     V131    10.0   .     S
V5     V17    10.0   .     S
V5     V9    10.0   .     S
V5     V18    10.0   .     S
V5     V12    10.0   .     S
V5     V121    10.0   .     S
V6     V132    10.0   .     S
V6     V18    10.0   .     S
V6     V10    10.0   .     S
V6     V17    10.0   1_565     S
V6     V11    10.0   1_565     S
V6     V122    10.0   .     S
V7     V129    10.0   1_655     S
V7     V19    10.0   .     S
V7     V11    10.0   .     S
V7     V20    10.0   .     S
V7     V10    10.0   1_655     S
V7     V123    10.0   .     S
V8     V130    10.0   1_655     S
V8     V20    10.0   .     S
V8     V12    10.0   .     S
V8     V19    10.0   1_565     S
V8     V9    10.0   1_665     S
V8     V124    10.0   .     S
V9     V14    10.0   1_545     S
V9     V121    10.0   .     S
V9     V17    10.0   .     S
V9     V19    10.0   1_455     S
V9     V8    10.0   1_445     S
V9     V141    10.0   .     S
V10     V13    10.0   .     S
V10     V122    10.0   .     S
V10     V18    10.0   .     S
V10     V20    10.0   1_455     S
V10     V7    10.0   1_455     S
V10     V142    10.0   .     S
V11     V16    10.0   1_545     S
V11     V123    10.0   .     S
V11     V19    10.0   .     S
V11     V17    10.0   .     S
V11     V6    10.0   1_545     S
V11     V143    10.0   .     S
V12     V15    10.0   .     S
V12     V124    10.0   .     S
V12     V20    10.0   .     S
V12     V18    10.0   .     S
V12     V144    10.0   .     S
V13     V3    10.0   1_455     S
V13     V45    10.0   .     S
V13     V21    10.0   .     S
V13     V22    10.0   .     S
V13     V38    10.0   .     S
V14     V4    10.0   1_455     S
V14     V9    10.0   1_565     S
V14     V46    10.0   .     S
V14     V22    10.0   .     S
V14     V21    10.0   1_565     S
V14     V37    10.0   1_565     S
V15     V47    10.0   .     S
V15     V23    10.0   .     S
V15     V24    10.0   .     S
V15     V40    10.0   .     S
V16     V11    10.0   1_565     S
V16     V48    10.0   .     S
V16     V24    10.0   .     S
V16     V23    10.0   1_565     S
V16     V39    10.0   1_565     S
V17     V23    10.0   .     S
V17     V141    10.0   .     S
V17     V6    10.0   1_545     S
V17     V131    10.0   .     S
V18     V24    10.0   .     S
V18     V142    10.0   .     S
V18     V132    10.0   .     S
V19     V21    10.0   1_655     S
V19     V143    10.0   .     S
V19     V9    10.0   1_655     S
V19     V8    10.0   1_545     S
V19     V129    10.0   1_655     S
V20     V22    10.0   1_655     S
V20     V144    10.0   .     S
V20     V10    10.0   1_655     S
V20     V130    10.0   1_655     S
V21     V4    10.0   1_445     S
V21     V19    10.0   1_455     S
V21     V29    10.0   .     S
V21     V14    10.0   1_545     S
V21     V45    10.0   .     S
V22     V3    10.0   1_455     S
V22     V20    10.0   1_455     S
V22     V30    10.0   .     S
V22     V46    10.0   .     S
V23     V2    10.0   1_545     S
V23     V31    10.0   .     S
V23     V16    10.0   1_545     S
V23     V47    10.0   .     S
V24     V32    10.0   .     S
V24     V48    10.0   .     S
V25     V29    10.0   .     S
V25     V62    10.0   1_545     S
V25     V44    10.0   1_445     S
V25     V35    10.0   1_455     S
V25     V33    10.0   .     S
V25     V41    10.0   .     S
V25     V49    10.0   .     S
V26     V30    10.0   .     S
V26     V61    10.0   .     S
V26     V43    10.0   1_455     S
V26     V36    10.0   1_455     S
V26     V34    10.0   .     S
V26     V42    10.0   .     S
V26     V50    10.0   .     S
V27     V31    10.0   .     S
V27     V64    10.0   1_545     S
V27     V42    10.0   1_545     S
V27     V33    10.0   .     S
V27     V35    10.0   .     S
V27     V43    10.0   .     S
V27     V51    10.0   .     S
V28     V32    10.0   .     S
V28     V63    10.0   .     S
V28     V41    10.0   .     S
V28     V34    10.0   .     S
V28     V36    10.0   .     S
V28     V44    10.0   .     S
V28     V52    10.0   .     S
V29     V38    10.0   .     S
V29     V45    10.0   .     S
V29     V47    10.0   .     S
V29     V37    10.0   .     S
V30     V37    10.0   1_565     S
V30     V46    10.0   .     S
V30     V48    10.0   .     S
V30     V38    10.0   .     S
V31     V40    10.0   .     S
V31     V47    10.0   .     S
V31     V45    10.0   1_655     S
V31     V39    10.0   .     S
V32     V39    10.0   1_565     S
V32     V48    10.0   .     S
V32     V46    10.0   1_655     S
V32     V40    10.0   .     S
V33     V37    10.0   .     S
V33     V51    10.0   .     S
V33     V42    10.0   1_545     S
V33     V41    10.0   .     S
V33     V70    10.0   1_545     S
V34     V38    10.0   .     S
V34     V52    10.0   .     S
V34     V41    10.0   .     S
V34     V42    10.0   .     S
V34     V69    10.0   .     S
V35     V39    10.0   .     S
V35     V49    10.0   1_655     S
V35     V25    10.0   1_655     S
V35     V44    10.0   1_545     S
V35     V43    10.0   .     S
V35     V72    10.0   1_545     S
V36     V40    10.0   .     S
V36     V50    10.0   1_655     S
V36     V26    10.0   1_655     S
V36     V43    10.0   .     S
V36     V44    10.0   .     S
V36     V71    10.0   .     S
V37     V2    10.0   1_545     S
V37     V30    10.0   1_545     S
V37     V14    10.0   1_545     S
V37     V46    10.0   1_545     S
V37     V47    10.0   .     S
V38     V45    10.0   .     S
V38     V48    10.0   .     S
V39     V4    10.0   1_545     S
V39     V32    10.0   1_545     S
V39     V16    10.0   1_545     S
V39     V48    10.0   1_545     S
V39     V45    10.0   1_655     S
V40     V47    10.0   .     S
V40     V46    10.0   1_655     S
V41     V47    10.0   .     S
V41     V69    10.0   .     S
V41     V63    10.0   .     S
V42     V27    10.0   1_565     S
V42     V48    10.0   .     S
V42     V70    10.0   .     S
V42     V33    10.0   1_565     S
V42     V64    10.0   .     S
V43     V26    10.0   1_655     S
V43     V45    10.0   1_655     S
V43     V71    10.0   .     S
V43     V61    10.0   1_655     S
V44     V25    10.0   1_665     S
V44     V46    10.0   1_655     S
V44     V72    10.0   .     S
V44     V35    10.0   1_565     S
V44     V62    10.0   1_655     S
V45     V43    10.0   1_455     S
V45     V31    10.0   1_455     S
V45     V39    10.0   1_455     S
V46     V37    10.0   1_565     S
V46     V44    10.0   1_455     S
V46     V32    10.0   1_455     S
V46     V40    10.0   1_455     S
V48     V39    10.0   1_565     S
V49     V35    10.0   1_455     S
V49     V53    10.0   .     S
V49     V62    10.0   1_545     S
V49     V72    10.0   1_445     S
V49     V61    10.0   .     S
V49     V69    10.0   .     S
V50     V36    10.0   1_455     S
V50     V54    10.0   .     S
V50     V61    10.0   .     S
V50     V71    10.0   1_455     S
V50     V62    10.0   .     S
V50     V70    10.0   .     S
V51     V55    10.0   .     S
V51     V64    10.0   1_545     S
V51     V70    10.0   1_545     S
V51     V63    10.0   .     S
V51     V71    10.0   .     S
V52     V56    10.0   .     S
V52     V63    10.0   .     S
V52     V69    10.0   .     S
V52     V64    10.0   .     S
V52     V72    10.0   .     S
V53     V75    10.0   1_455     S
V53     V67    10.0   1_455     S
V53     V59    10.0   1_455     S
V53     V65    10.0   .     S
V53     V58    10.0   .     S
V53     V95    10.0   1_455     S
V54     V76    10.0   1_455     S
V54     V68    10.0   1_455     S
V54     V60    10.0   1_455     S
V54     V66    10.0   .     S
V54     V57    10.0   1_565     S
V54     V96    10.0   1_455     S
V55     V73    10.0   .     S
V55     V65    10.0   .     S
V55     V57    10.0   .     S
V55     V67    10.0   .     S
V55     V60    10.0   .     S
V55     V93    10.0   .     S
V56     V74    10.0   .     S
V56     V66    10.0   .     S
V56     V58    10.0   .     S
V56     V68    10.0   .     S
V56     V59    10.0   1_565     S
V56     V94    10.0   .     S
V57     V62    10.0   1_545     S
V57     V93    10.0   .     S
V57     V65    10.0   .     S
V57     V66    10.0   1_545     S
V57     V54    10.0   1_545     S
V57     V85    10.0   .     S
V58     V61    10.0   .     S
V58     V94    10.0   .     S
V58     V66    10.0   .     S
V58     V65    10.0   .     S
V58     V86    10.0   .     S
V59     V64    10.0   1_545     S
V59     V95    10.0   .     S
V59     V53    10.0   1_655     S
V59     V67    10.0   .     S
V59     V68    10.0   1_545     S
V59     V56    10.0   1_545     S
V59     V87    10.0   .     S
V60     V63    10.0   .     S
V60     V96    10.0   .     S
V60     V54    10.0   1_655     S
V60     V68    10.0   .     S
V60     V67    10.0   .     S
V60     V88    10.0   .     S
V61     V43    10.0   1_455     S
V61     V71    10.0   1_455     S
V61     V69    10.0   .     S
V62     V25    10.0   1_565     S
V62     V49    10.0   1_565     S
V62     V57    10.0   1_565     S
V62     V44    10.0   1_455     S
V62     V72    10.0   1_455     S
V62     V70    10.0   .     S
V63     V69    10.0   .     S
V63     V71    10.0   .     S
V64     V27    10.0   1_565     S
V64     V51    10.0   1_565     S
V64     V59    10.0   1_565     S
V64     V70    10.0   .     S
V64     V72    10.0   .     S
V65     V69    10.0   .     S
V65     V85    10.0   .     S
V65     V73    10.0   .     S
V66     V70    10.0   .     S
V66     V86    10.0   .     S
V66     V57    10.0   1_565     S
V66     V74    10.0   .     S
V67     V53    10.0   1_655     S
V67     V71    10.0   .     S
V67     V87    10.0   .     S
V67     V75    10.0   .     S
V68     V54    10.0   1_655     S
V68     V72    10.0   .     S
V68     V88    10.0   .     S
V68     V59    10.0   1_565     S
V68     V76    10.0   .     S
V70     V33    10.0   1_565     S
V70     V51    10.0   1_565     S
V71     V61    10.0   1_655     S
V71     V50    10.0   1_655     S
V72     V62    10.0   1_655     S
V72     V35    10.0   1_565     S
V72     V49    10.0   1_665     S
V73     V79    10.0   .     S
V73     V85    10.0   .     S
V73     V93    10.0   .     S
V73     V94    10.0   .     S
V73     V88    10.0   .     S
V74     V80    10.0   .     S
V74     V86    10.0   .     S
V74     V94    10.0   .     S
V74     V93    10.0   1_565     S
V74     V87    10.0   1_565     S
V75     V53    10.0   1_655     S
V75     V77    10.0   1_655     S
V75     V87    10.0   .     S
V75     V95    10.0   .     S
V75     V96    10.0   .     S
V75     V86    10.0   1_655     S
V76     V54    10.0   1_655     S
V76     V78    10.0   1_655     S
V76     V88    10.0   .     S
V76     V96    10.0   .     S
V76     V95    10.0   1_565     S
V76     V85    10.0   1_665     S
V77     V75    10.0   1_455     S
V77     V118    10.0   .     S
V77     V89    10.0   .     S
V77     V82    10.0   .     S
V77     V91    10.0   1_455     S
V77     V81    10.0   .     S
V77     V109    10.0   .     S
V78     V76    10.0   1_455     S
V78     V117    10.0   1_565     S
V78     V90    10.0   .     S
V78     V81    10.0   1_565     S
V78     V92    10.0   1_455     S
V78     V82    10.0   .     S
V78     V110    10.0   .     S
V79     V120    10.0   .     S
V79     V91    10.0   .     S
V79     V84    10.0   .     S
V79     V89    10.0   .     S
V79     V83    10.0   .     S
V79     V111    10.0   .     S
V80     V119    10.0   1_565     S
V80     V92    10.0   .     S
V80     V83    10.0   1_565     S
V80     V90    10.0   .     S
V80     V84    10.0   .     S
V80     V112    10.0   .     S
V81     V78    10.0   1_545     S
V81     V85    10.0   .     S
V81     V109    10.0   .     S
V81     V89    10.0   .     S
V81     V92    10.0   1_445     S
V81     V101    10.0   .     S
V82     V86    10.0   .     S
V82     V110    10.0   .     S
V82     V90    10.0   .     S
V82     V91    10.0   1_455     S
V82     V102    10.0   .     S
V83     V80    10.0   1_545     S
V83     V87    10.0   .     S
V83     V111    10.0   .     S
V83     V91    10.0   .     S
V83     V90    10.0   1_545     S
V83     V103    10.0   .     S
V84     V88    10.0   .     S
V84     V112    10.0   .     S
V84     V92    10.0   .     S
V84     V89    10.0   .     S
V84     V104    10.0   .     S
V85     V93    10.0   .     S
V85     V95    10.0   1_455     S
V85     V76    10.0   1_445     S
V86     V94    10.0   .     S
V86     V96    10.0   1_455     S
V86     V75    10.0   1_455     S
V87     V95    10.0   .     S
V87     V93    10.0   .     S
V87     V74    10.0   1_545     S
V88     V96    10.0   .     S
V88     V94    10.0   .     S
V89     V94    10.0   .     S
V89     V101    10.0   .     S
V89     V118    10.0   .     S
V90     V93    10.0   1_565     S
V90     V102    10.0   .     S
V90     V83    10.0   1_565     S
V90     V117    10.0   1_565     S
V91     V77    10.0   1_655     S
V91     V96    10.0   .     S
V91     V103    10.0   .     S
V91     V82    10.0   1_655     S
V91     V120    10.0   .     S
V92     V78    10.0   1_655     S
V92     V95    10.0   1_565     S
V92     V104    10.0   .     S
V92     V81    10.0   1_665     S
V92     V119    10.0   1_565     S
V93     V90    10.0   1_545     S
V93     V74    10.0   1_545     S
V95     V92    10.0   1_545     S
V95     V53    10.0   1_655     S
V95     V85    10.0   1_655     S
V95     V76    10.0   1_545     S
V96     V54    10.0   1_655     S
V96     V86    10.0   1_655     S
V97     V113    10.0   .     S
V97     V101    10.0   .     S
V97     V135    10.0   1_554     S
V97     V116    10.0   .     S
V97     V106    10.0   .     S
V97     V105    10.0   .     S
V97     V137    10.0   1_554     S
V98     V114    10.0   .     S
V98     V102    10.0   .     S
V98     V136    10.0   1_554     S
V98     V115    10.0   1_565     S
V98     V105    10.0   1_565     S
V98     V106    10.0   .     S
V98     V138    10.0   1_554     S
V99     V115    10.0   .     S
V99     V103    10.0   .     S
V99     V133    10.0   1_654     S
V99     V114    10.0   1_655     S
V99     V108    10.0   .     S
V99     V107    10.0   .     S
V99     V139    10.0   1_554     S
V100     V116    10.0   .     S
V100     V104    10.0   .     S
V100     V134    10.0   1_654     S
V100     V113    10.0   1_665     S
V100     V107    10.0   1_565     S
V100     V108    10.0   .     S
V100     V140    10.0   1_554     S
V101     V109    10.0   .     S
V101     V118    10.0   .     S
V101     V117    10.0   .     S
V101     V111    10.0   .     S
V102     V110    10.0   .     S
V102     V117    10.0   1_565     S
V102     V118    10.0   .     S
V102     V112    10.0   .     S
V103     V111    10.0   .     S
V103     V120    10.0   .     S
V103     V119    10.0   .     S
V103     V109    10.0   1_655     S
V104     V112    10.0   .     S
V104     V119    10.0   1_565     S
V104     V120    10.0   .     S
V104     V110    10.0   1_655     S
V105     V113    10.0   .     S
V105     V111    10.0   .     S
V105     V138    10.0   1_544     S
V105     V98    10.0   1_545     S
V105     V115    10.0   .     S
V105     V127    10.0   1_554     S
V106     V114    10.0   .     S
V106     V112    10.0   .     S
V106     V137    10.0   1_554     S
V106     V116    10.0   .     S
V106     V128    10.0   1_554     S
V107     V115    10.0   .     S
V107     V109    10.0   1_655     S
V107     V140    10.0   1_544     S
V107     V100    10.0   1_545     S
V107     V113    10.0   1_655     S
V107     V125    10.0   1_654     S
V108     V116    10.0   .     S
V108     V110    10.0   1_655     S
V108     V139    10.0   1_554     S
V108     V114    10.0   1_655     S
V108     V126    10.0   1_654     S
V109     V107    10.0   1_455     S
V109     V118    10.0   .     S
V109     V103    10.0   1_455     S
V109     V119    10.0   1_455     S
V110     V108    10.0   1_455     S
V110     V117    10.0   1_565     S
V110     V104    10.0   1_455     S
V110     V120    10.0   1_455     S
V111     V120    10.0   .     S
V111     V117    10.0   .     S
V112     V119    10.0   1_565     S
V112     V118    10.0   .     S
V113     V100    10.0   1_445     S
V113     V117    10.0   .     S
V113     V125    10.0   1_554     S
V113     V107    10.0   1_455     S
V113     V134    10.0   1_544     S
V114     V99    10.0   1_455     S
V114     V118    10.0   .     S
V114     V126    10.0   1_554     S
V114     V108    10.0   1_455     S
V114     V133    10.0   1_554     S
V115     V98    10.0   1_545     S
V115     V119    10.0   .     S
V115     V127    10.0   1_554     S
V115     V136    10.0   1_544     S
V116     V120    10.0   .     S
V116     V128    10.0   1_554     S
V116     V135    10.0   1_554     S
V117     V78    10.0   1_545     S
V117     V110    10.0   1_545     S
V117     V90    10.0   1_545     S
V117     V102    10.0   1_545     S
V119     V80    10.0   1_545     S
V119     V112    10.0   1_545     S
V119     V92    10.0   1_545     S
V119     V104    10.0   1_545     S
V119     V109    10.0   1_655     S
V120     V110    10.0   1_655     S
V121     V129    10.0   .     S
V121     V125    10.0   .     S
V121     V131    10.0   .     S
V121     V141    10.0   .     S
V121     V142    10.0   .     S
V122     V130    10.0   .     S
V122     V126    10.0   .     S
V122     V132    10.0   .     S
V122     V142    10.0   .     S
V122     V141    10.0   1_565     S
V123     V131    10.0   .     S
V123     V127    10.0   .     S
V123     V129    10.0   1_655     S
V123     V143    10.0   .     S
V123     V144    10.0   .     S
V124     V132    10.0   .     S
V124     V128    10.0   .     S
V124     V130    10.0   1_655     S
V124     V144    10.0   .     S
V124     V143    10.0   1_565     S
V125     V113    10.0   1_556     S
V125     V107    10.0   1_456     S
V125     V140    10.0   1_445     S
V125     V134    10.0   1_545     S
V125     V133    10.0   .     S
V125     V137    10.0   .     S
V126     V114    10.0   1_556     S
V126     V108    10.0   1_456     S
V126     V139    10.0   1_455     S
V126     V133    10.0   .     S
V126     V134    10.0   .     S
V126     V138    10.0   .     S
V127     V115    10.0   1_556     S
V127     V105    10.0   1_556     S
V127     V138    10.0   1_545     S
V127     V136    10.0   1_545     S
V127     V135    10.0   .     S
V127     V139    10.0   .     S
V128     V116    10.0   1_556     S
V128     V106    10.0   1_556     S
V128     V137    10.0   .     S
V128     V135    10.0   .     S
V128     V136    10.0   .     S
V128     V140    10.0   .     S
V129     V7    10.0   1_455     S
V129     V142    10.0   .     S
V129     V123    10.0   1_455     S
V129     V133    10.0   .     S
V129     V19    10.0   1_455     S
V129     V143    10.0   1_455     S
V130     V8    10.0   1_455     S
V130     V141    10.0   1_565     S
V130     V124    10.0   1_455     S
V130     V134    10.0   .     S
V130     V20    10.0   1_455     S
V130     V144    10.0   1_455     S
V131     V144    10.0   .     S
V131     V135    10.0   .     S
V131     V141    10.0   .     S
V132     V143    10.0   1_565     S
V132     V136    10.0   .     S
V132     V142    10.0   .     S
V133     V99    10.0   1_456     S
V133     V114    10.0   1_556     S
V133     V139    10.0   1_455     S
V133     V137    10.0   .     S
V134     V100    10.0   1_456     S
V134     V113    10.0   1_566     S
V134     V125    10.0   1_565     S
V134     V140    10.0   1_455     S
V134     V138    10.0   .     S
V135     V97    10.0   1_556     S
V135     V116    10.0   1_556     S
V135     V137    10.0   .     S
V135     V139    10.0   .     S
V136     V98    10.0   1_556     S
V136     V115    10.0   1_566     S
V136     V127    10.0   1_565     S
V136     V138    10.0   .     S
V136     V140    10.0   .     S
V137     V106    10.0   1_556     S
V137     V142    10.0   .     S
V137     V97    10.0   1_556     S
V138     V105    10.0   1_566     S
V138     V127    10.0   1_565     S
V138     V141    10.0   1_565     S
V138     V98    10.0   1_556     S
V139     V108    10.0   1_556     S
V139     V126    10.0   1_655     S
V139     V144    10.0   .     S
V139     V99    10.0   1_556     S
V139     V133    10.0   1_655     S
V140     V107    10.0   1_566     S
V140     V125    10.0   1_665     S
V140     V143    10.0   1_565     S
V140     V100    10.0   1_556     S
V140     V134    10.0   1_655     S
V141     V130    10.0   1_545     S
V141     V138    10.0   1_545     S
V141     V122    10.0   1_545     S
V143     V132    10.0   1_545     S
V143     V129    10.0   1_655     S
V143     V140    10.0   1_545     S
V143     V124    10.0   1_545     S
V144     V130    10.0   1_655     S
