data_wys
_audit_creation_date              2019-12-31
_audit_creation_method            'Pymatgen'
_symmetry_space_group_name_H-M    'P1'
_symmetry_Int_Tables_number       1
loop_
_symmetry_equiv_pos_as_xyz
  x,y,z
_cell_length_a                    24.9816
_cell_length_b                    24.9816
_cell_length_c                    38.7868
_cell_angle_alpha                 90.0
_cell_angle_beta                 90.0
_cell_angle_gamma                 120.0
loop_
_atom_site_label
_atom_site_type_symbol
_atom_site_fract_x
_atom_site_fract_y
_atom_site_fract_z
Er1     Er     0.933   0.2664   0.3333
Er2     Er     0.933   0.2664   0.8333
Er3     Er     1.0   0.4003   0.0
Er4     Er     1.0   0.4003   0.5
Er5     Er     0.067   0.3333   0.1667
Er6     Er     0.067   0.3333   0.6667
Er7     Er     0.6667   0.7336   0.1667
Er8     Er     0.6667   0.7336   0.6667
Er9     Er     0.7336   0.6667   0.3333
Er10     Er     0.7336   0.6667   0.8333
Er11     Er     0.5997   0.5997   0.0
Er12     Er     0.5997   0.5997   0.5
V13     V     0.0   0.0   0.0
V14     V     0.0   0.0   0.5
Er15     Er     0.2664   0.933   0.1667
Er16     Er     0.2664   0.933   0.6667
Er17     Er     0.3333   0.067   0.3333
Er18     Er     0.3333   0.067   0.8333
Er19     Er     0.4003   0.0   0.0
Er20     Er     0.4003   0.0   0.5
V21     V     0.6667   0.3333   0.1667
V22     V     0.6667   0.3333   0.6667
V23     V     0.3333   0.6667   0.3333
V24     V     0.3333   0.6667   0.8333
loop_
_geom_bond_atom_site_label_1
_geom_bond_atom_site_label_2
_geom_bond_distance
_geom_bond_site_symmetry_2
_ccdc_geom_bond_type
Er1     V23    10.0   1_655     S
Er1     V14    10.0   1_655     S
Er1     V21    10.0   .     S
Er2     V24    10.0   1_655     S
Er2     V13    10.0   1_656     S
Er2     V22    10.0   .     S
Er3     V24    10.0   1_654     S
Er3     V13    10.0   1_655     S
Er3     V21    10.0   .     S
Er4     V23    10.0   1_655     S
Er4     V14    10.0   1_655     S
Er4     V22    10.0   .     S
Er5     V23    10.0   .     S
Er5     V13    10.0   .     S
Er5     V21    10.0   1_455     S
Er6     V24    10.0   .     S
Er6     V14    10.0   .     S
Er6     V22    10.0   1_455     S
Er7     V21    10.0   .     S
Er7     V23    10.0   .     S
Er7     V13    10.0   1_665     S
Er8     V22    10.0   .     S
Er8     V24    10.0   .     S
Er8     V14    10.0   1_665     S
Er9     V21    10.0   .     S
Er9     V23    10.0   .     S
Er9     V14    10.0   1_665     S
Er10     V22    10.0   .     S
Er10     V24    10.0   .     S
Er10     V13    10.0   1_666     S
Er11     V21    10.0   .     S
Er11     V24    10.0   1_554     S
Er11     V13    10.0   1_665     S
Er12     V22    10.0   .     S
Er12     V23    10.0   .     S
Er12     V14    10.0   1_665     S
V13     Er3    10.0   1_455     S
V13     Er2    10.0   1_454     S
V13     Er11    10.0   1_445     S
V13     Er10    10.0   1_444     S
V13     Er7    10.0   1_445     S
V13     Er19    10.0   .     S
V13     Er18    10.0   1_554     S
V13     Er15    10.0   1_545     S
V14     Er4    10.0   1_455     S
V14     Er1    10.0   1_455     S
V14     Er12    10.0   1_445     S
V14     Er9    10.0   1_445     S
V14     Er8    10.0   1_445     S
V14     Er20    10.0   .     S
V14     Er17    10.0   .     S
V14     Er16    10.0   1_545     S
Er15     V21    10.0   1_565     S
Er15     V23    10.0   .     S
Er15     V13    10.0   1_565     S
Er16     V22    10.0   1_565     S
Er16     V24    10.0   .     S
Er16     V14    10.0   1_565     S
Er17     V21    10.0   .     S
Er17     V23    10.0   1_545     S
Er18     V22    10.0   .     S
Er18     V24    10.0   1_545     S
Er18     V13    10.0   1_556     S
Er19     V21    10.0   .     S
Er19     V24    10.0   1_544     S
Er20     V22    10.0   .     S
Er20     V23    10.0   1_545     S
V21     Er5    10.0   1_655     S
V21     Er15    10.0   1_545     S
V22     Er6    10.0   1_655     S
V22     Er16    10.0   1_545     S
V23     Er1    10.0   1_455     S
V23     Er4    10.0   1_455     S
V23     Er17    10.0   1_565     S
V23     Er20    10.0   1_565     S
V24     Er2    10.0   1_455     S
V24     Er3    10.0   1_456     S
V24     Er11    10.0   1_556     S
V24     Er18    10.0   1_565     S
V24     Er19    10.0   1_566     S
