data_wyt
_audit_creation_date              2019-12-31
_audit_creation_method            'Pymatgen'
_symmetry_space_group_name_H-M    'P1'
_symmetry_Int_Tables_number       1
loop_
_symmetry_equiv_pos_as_xyz
  x,y,z
_cell_length_a                    36.8456
_cell_length_b                    36.8456
_cell_length_c                    38.517
_cell_angle_alpha                 90.0
_cell_angle_beta                 90.0
_cell_angle_gamma                 120.0
loop_
_atom_site_label
_atom_site_type_symbol
_atom_site_fract_x
_atom_site_fract_y
_atom_site_fract_z
Er1     Er     0.4402   0.0598   0.7605
Er2     Er     0.4402   0.5598   0.7605
Er3     Er     0.9402   0.0598   0.7605
Er4     Er     0.9402   0.5598   0.7605
Er5     Er     0.4402   0.3804   0.7605
Er6     Er     0.4402   0.8804   0.7605
Er7     Er     0.9402   0.3804   0.7605
Er8     Er     0.9402   0.8804   0.7605
Er9     Er     0.1196   0.0598   0.7605
Er10     Er     0.1196   0.5598   0.7605
Er11     Er     0.6196   0.0598   0.7605
Er12     Er     0.6196   0.5598   0.7605
V13     V     0.0   0.0   0.0
V14     V     1.0   0.5   0.0
V15     V     0.5   0.0   0.0
V16     V     0.5   0.5   0.0
Er17     Er     0.1069   0.2137   0.4272
Er18     Er     0.1069   0.7137   0.4272
Er19     Er     0.6069   0.2137   0.4272
Er20     Er     0.6069   0.7137   0.4272
Er21     Er     0.2863   0.3931   0.4272
Er22     Er     0.2863   0.8931   0.4272
Er23     Er     0.7863   0.3931   0.4272
Er24     Er     0.7863   0.8931   0.4272
Er25     Er     0.1069   0.3931   0.4272
Er26     Er     0.1069   0.8931   0.4272
Er27     Er     0.6069   0.3931   0.4272
Er28     Er     0.6069   0.8931   0.4272
V29     V     0.1667   0.3333   0.6667
V30     V     0.1667   0.8333   0.6667
V31     V     0.6667   0.3333   0.6667
V32     V     0.6667   0.8333   0.6667
Er33     Er     0.2735   0.2265   0.0938
Er34     Er     0.2735   0.7265   0.0938
Er35     Er     0.7735   0.2265   0.0938
Er36     Er     0.7735   0.7265   0.0938
Er37     Er     0.2735   0.0471   0.0938
Er38     Er     0.2735   0.5471   0.0938
Er39     Er     0.7735   0.0471   0.0938
Er40     Er     0.7735   0.5471   0.0938
Er41     Er     0.4529   0.2265   0.0938
Er42     Er     0.4529   0.7265   0.0938
Er43     Er     0.9529   0.2265   0.0938
Er44     Er     0.9529   0.7265   0.0938
V45     V     0.3333   0.1667   0.3333
V46     V     0.3333   0.6667   0.3333
V47     V     0.8333   0.1667   0.3333
V48     V     0.8333   0.6667   0.3333
loop_
_geom_bond_atom_site_label_1
_geom_bond_atom_site_label_2
_geom_bond_distance
_geom_bond_site_symmetry_2
_ccdc_geom_bond_type
Er1     V30    10.008   1_545     S
Er1     V31    10.008   .     S
Er1     V15    9.984   1_556     S
Er2     V29    10.008   .     S
Er2     V32    10.008   .     S
Er2     V16    9.984   1_556     S
Er3     V32    10.008   1_545     S
Er3     V29    10.008   1_655     S
Er3     V13    9.984   1_656     S
Er4     V31    10.008   .     S
Er4     V30    10.008   1_655     S
Er4     V14    9.984   1_556     S
Er5     V29    10.008   .     S
Er5     V31    10.008   .     S
Er5     V16    9.984   1_556     S
Er6     V30    10.008   .     S
Er6     V32    10.008   .     S
Er6     V15    9.984   1_566     S
Er7     V31    10.008   .     S
Er7     V29    10.008   1_655     S
Er7     V14    9.984   1_556     S
Er8     V32    10.008   .     S
Er8     V30    10.008   1_655     S
Er8     V13    9.984   1_666     S
Er9     V29    10.008   .     S
Er9     V30    10.008   1_545     S
Er9     V13    9.984   1_556     S
Er10     V30    10.008   .     S
Er10     V29    10.008   .     S
Er10     V14    9.984   1_456     S
Er11     V31    10.008   .     S
Er11     V32    10.008   1_545     S
Er11     V15    9.984   1_556     S
Er12     V32    10.008   .     S
Er12     V31    10.008   .     S
Er12     V16    9.984   1_556     S
V13     Er36    10.008   1_445     S
V13     Er44    10.008   1_445     S
V13     Er37    10.008   .     S
V13     Er33    10.008   .     S
V13     Er43    10.008   1_455     S
V13     Er39    10.008   1_455     S
V13     Er9    9.984   1_554     S
V13     Er8    9.984   1_444     S
V13     Er3    9.984   1_454     S
V14     Er35    10.008   .     S
V14     Er43    10.008   .     S
V14     Er38    10.008   1_655     S
V14     Er34    10.008   1_655     S
V14     Er44    10.008   .     S
V14     Er40    10.008   .     S
V14     Er10    9.984   1_654     S
V14     Er7    9.984   1_554     S
V14     Er4    9.984   1_554     S
V15     Er34    10.008   1_545     S
V15     Er42    10.008   1_545     S
V15     Er39    10.008   .     S
V15     Er35    10.008   .     S
V15     Er41    10.008   .     S
V15     Er37    10.008   .     S
V15     Er11    9.984   1_554     S
V15     Er6    9.984   1_544     S
V15     Er1    9.984   1_554     S
V16     Er33    10.008   .     S
V16     Er41    10.008   .     S
V16     Er40    10.008   .     S
V16     Er36    10.008   .     S
V16     Er42    10.008   .     S
V16     Er38    10.008   .     S
V16     Er12    9.984   1_554     S
V16     Er5    9.984   1_554     S
V16     Er2    9.984   1_554     S
Er17     V47    10.008   1_455     S
Er17     V45    10.008   .     S
Er17     V29    9.984   .     S
Er18     V48    10.008   1_455     S
Er18     V46    10.008   .     S
Er18     V30    9.984   .     S
Er19     V45    10.008   .     S
Er19     V47    10.008   .     S
Er19     V31    9.984   .     S
Er20     V46    10.008   .     S
Er20     V48    10.008   .     S
Er20     V32    9.984   .     S
Er21     V46    10.008   .     S
Er21     V45    10.008   .     S
Er21     V29    9.984   .     S
Er22     V45    10.008   1_565     S
Er22     V46    10.008   .     S
Er22     V30    9.984   .     S
Er23     V48    10.008   .     S
Er23     V47    10.008   .     S
Er23     V31    9.984   .     S
Er24     V47    10.008   1_565     S
Er24     V48    10.008   .     S
Er24     V32    9.984   .     S
Er25     V47    10.008   1_455     S
Er25     V46    10.008   .     S
Er25     V29    9.984   .     S
Er26     V48    10.008   1_455     S
Er26     V45    10.008   1_565     S
Er26     V30    9.984   .     S
Er27     V45    10.008   .     S
Er27     V48    10.008   .     S
Er27     V31    9.984   .     S
Er28     V46    10.008   .     S
Er28     V47    10.008   1_565     S
Er28     V32    9.984   .     S
V29     Er3    10.008   1_455     S
V29     Er7    10.008   1_455     S
V30     Er1    10.008   1_565     S
V30     Er4    10.008   1_455     S
V30     Er9    10.008   1_565     S
V30     Er8    10.008   1_455     S
V32     Er3    10.008   1_565     S
V32     Er11    10.008   1_565     S
Er33     V45    9.984   .     S
Er34     V15    10.008   1_565     S
Er34     V14    10.008   1_455     S
Er34     V46    9.984   .     S
Er35     V47    9.984   .     S
Er36     V13    10.008   1_665     S
Er36     V48    9.984   .     S
Er37     V45    9.984   .     S
Er38     V14    10.008   1_455     S
Er38     V46    9.984   .     S
Er39     V13    10.008   1_655     S
Er39     V47    9.984   .     S
Er40     V48    9.984   .     S
Er41     V45    9.984   .     S
Er42     V15    10.008   1_565     S
Er42     V46    9.984   .     S
Er43     V13    10.008   1_655     S
Er43     V47    9.984   .     S
Er44     V13    10.008   1_665     S
Er44     V48    9.984   .     S
V45     Er26    10.008   1_545     S
V45     Er22    10.008   1_545     S
V47     Er17    10.008   1_655     S
V47     Er25    10.008   1_655     S
V47     Er28    10.008   1_545     S
V47     Er24    10.008   1_545     S
V48     Er18    10.008   1_655     S
V48     Er26    10.008   1_655     S
