data_wzz
_audit_creation_date              2019-12-31
_audit_creation_method            'Pymatgen'
_symmetry_space_group_name_H-M    'P1'
_symmetry_Int_Tables_number       1
loop_
_symmetry_equiv_pos_as_xyz
  x,y,z
_cell_length_a                    43.3162
_cell_length_b                    43.3162
_cell_length_c                    43.3162
_cell_angle_alpha                 90.0
_cell_angle_beta                 90.0
_cell_angle_gamma                 90.0
loop_
_atom_site_label
_atom_site_type_symbol
_atom_site_fract_x
_atom_site_fract_y
_atom_site_fract_z
Er1     Er     0.375   0.375   0.125
Er2     Er     0.375   0.375   0.625
Er3     Er     0.375   0.875   0.125
Er4     Er     0.375   0.875   0.625
Er5     Er     0.875   0.375   0.125
Er6     Er     0.875   0.375   0.625
Er7     Er     0.875   0.875   0.125
Er8     Er     0.875   0.875   0.625
Er9     Er     0.375   0.125   0.125
Er10     Er     0.375   0.125   0.625
Er11     Er     0.375   0.625   0.125
Er12     Er     0.375   0.625   0.625
Er13     Er     0.875   0.125   0.125
Er14     Er     0.875   0.125   0.625
Er15     Er     0.875   0.625   0.125
Er16     Er     0.875   0.625   0.625
Er17     Er     0.375   0.125   0.375
Er18     Er     0.375   0.125   0.875
Er19     Er     0.375   0.625   0.375
Er20     Er     0.375   0.625   0.875
Er21     Er     0.875   0.125   0.375
Er22     Er     0.875   0.125   0.875
Er23     Er     0.875   0.625   0.375
Er24     Er     0.875   0.625   0.875
Er25     Er     0.125   0.375   0.125
Er26     Er     0.125   0.375   0.625
Er27     Er     0.125   0.875   0.125
Er28     Er     0.125   0.875   0.625
Er29     Er     0.625   0.375   0.125
Er30     Er     0.625   0.375   0.625
Er31     Er     0.625   0.875   0.125
Er32     Er     0.625   0.875   0.625
Er33     Er     0.125   0.125   0.375
Er34     Er     0.125   0.125   0.875
Er35     Er     0.125   0.625   0.375
Er36     Er     0.125   0.625   0.875
Er37     Er     0.625   0.125   0.375
Er38     Er     0.625   0.125   0.875
Er39     Er     0.625   0.625   0.375
Er40     Er     0.625   0.625   0.875
Er41     Er     0.125   0.375   0.375
Er42     Er     0.125   0.375   0.875
Er43     Er     0.125   0.875   0.375
Er44     Er     0.125   0.875   0.875
Er45     Er     0.625   0.375   0.375
Er46     Er     0.625   0.375   0.875
Er47     Er     0.625   0.875   0.375
Er48     Er     0.625   0.875   0.875
V49     V     0.0   0.25   0.25
V50     V     0.0   0.25   0.75
V51     V     0.0   0.75   0.25
V52     V     0.0   0.75   0.75
V53     V     0.5   0.25   0.25
V54     V     0.5   0.25   0.75
V55     V     0.5   0.75   0.25
V56     V     0.5   0.75   0.75
Er57     Er     0.375   0.375   0.375
Er58     Er     0.375   0.375   0.875
Er59     Er     0.375   0.875   0.375
Er60     Er     0.375   0.875   0.875
Er61     Er     0.875   0.375   0.375
Er62     Er     0.875   0.375   0.875
Er63     Er     0.875   0.875   0.375
Er64     Er     0.875   0.875   0.875
V65     V     0.25   0.0   0.25
V66     V     0.25   0.0   0.75
V67     V     0.25   0.5   0.25
V68     V     0.25   0.5   0.75
V69     V     0.75   0.0   0.25
V70     V     0.75   0.0   0.75
V71     V     0.75   0.5   0.25
V72     V     0.75   0.5   0.75
V73     V     0.25   0.25   0.0
V74     V     0.25   0.25   0.5
V75     V     0.25   0.75   0.0
V76     V     0.25   0.75   0.5
V77     V     0.75   0.25   0.0
V78     V     0.75   0.25   0.5
V79     V     0.75   0.75   0.0
V80     V     0.75   0.75   0.5
Er81     Er     0.125   0.125   0.125
Er82     Er     0.125   0.125   0.625
Er83     Er     0.125   0.625   0.125
Er84     Er     0.125   0.625   0.625
Er85     Er     0.625   0.125   0.125
Er86     Er     0.625   0.125   0.625
Er87     Er     0.625   0.625   0.125
Er88     Er     0.625   0.625   0.625
V89     V     0.0   0.0   0.0
V90     V     0.0   0.0   0.5
V91     V     0.0   0.5   0.0
V92     V     0.0   0.5   0.5
V93     V     0.5   0.0   0.0
V94     V     0.5   0.0   0.5
V95     V     0.5   0.5   0.0
V96     V     0.5   0.5   0.5
Ti97     Ti     0.0   0.0   0.25
Ti98     Ti     0.0   0.0   0.75
Ti99     Ti     0.0   0.5   0.25
Ti100     Ti     0.0   0.5   0.75
Ti101     Ti     0.5   0.0   0.25
Ti102     Ti     0.5   0.0   0.75
Ti103     Ti     0.5   0.5   0.25
Ti104     Ti     0.5   0.5   0.75
Ti105     Ti     0.25   0.0   0.0
Ti106     Ti     0.25   0.0   0.5
Ti107     Ti     0.25   0.5   0.0
Ti108     Ti     0.25   0.5   0.5
Ti109     Ti     0.75   0.0   0.0
Ti110     Ti     0.75   0.0   0.5
Ti111     Ti     0.75   0.5   0.0
Ti112     Ti     0.75   0.5   0.5
Ti113     Ti     0.0   0.25   0.0
Ti114     Ti     0.0   0.25   0.5
Ti115     Ti     0.0   0.75   0.0
Ti116     Ti     0.0   0.75   0.5
Ti117     Ti     0.5   0.25   0.0
Ti118     Ti     0.5   0.25   0.5
Ti119     Ti     0.5   0.75   0.0
Ti120     Ti     0.5   0.75   0.5
Ti121     Ti     0.25   0.25   0.25
Ti122     Ti     0.25   0.25   0.75
Ti123     Ti     0.25   0.75   0.25
Ti124     Ti     0.25   0.75   0.75
Ti125     Ti     0.75   0.25   0.25
Ti126     Ti     0.75   0.25   0.75
Ti127     Ti     0.75   0.75   0.25
Ti128     Ti     0.75   0.75   0.75
loop_
_geom_bond_atom_site_label_1
_geom_bond_atom_site_label_2
_geom_bond_distance
_geom_bond_site_symmetry_2
_ccdc_geom_bond_type
Er1     V73    9.378   .     S
Er1     V67    9.378   .     S
Er1     V53    9.378   .     S
Er1     V95    9.378   .     S
Er2     V74    9.378   .     S
Er2     V68    9.378   .     S
Er2     V54    9.378   .     S
Er2     V96    9.378   .     S
Er3     V75    9.378   .     S
Er3     V65    9.378   1_565     S
Er3     V55    9.378   .     S
Er3     V93    9.378   1_565     S
Er4     V76    9.378   .     S
Er4     V66    9.378   1_565     S
Er4     V56    9.378   .     S
Er4     V94    9.378   1_565     S
Er5     V77    9.378   .     S
Er5     V71    9.378   .     S
Er5     V49    9.378   1_655     S
Er5     V91    9.378   1_655     S
Er6     V78    9.378   .     S
Er6     V72    9.378   .     S
Er6     V50    9.378   1_655     S
Er6     V92    9.378   1_655     S
Er7     V79    9.378   .     S
Er7     V69    9.378   1_565     S
Er7     V51    9.378   1_655     S
Er7     V89    9.378   1_665     S
Er8     V80    9.378   .     S
Er8     V70    9.378   1_565     S
Er8     V52    9.378   1_655     S
Er8     V90    9.378   1_665     S
Er9     V65    9.378   .     S
Er9     V73    9.378   .     S
Er9     V53    9.378   .     S
Er9     V93    9.378   .     S
Er10     V66    9.378   .     S
Er10     V74    9.378   .     S
Er10     V54    9.378   .     S
Er10     V94    9.378   .     S
Er11     V67    9.378   .     S
Er11     V75    9.378   .     S
Er11     V55    9.378   .     S
Er11     V95    9.378   .     S
Er12     V68    9.378   .     S
Er12     V76    9.378   .     S
Er12     V56    9.378   .     S
Er12     V96    9.378   .     S
Er13     V69    9.378   .     S
Er13     V77    9.378   .     S
Er13     V49    9.378   1_655     S
Er13     V89    9.378   1_655     S
Er14     V70    9.378   .     S
Er14     V78    9.378   .     S
Er14     V50    9.378   1_655     S
Er14     V90    9.378   1_655     S
Er15     V71    9.378   .     S
Er15     V79    9.378   .     S
Er15     V51    9.378   1_655     S
Er15     V91    9.378   1_655     S
Er16     V72    9.378   .     S
Er16     V80    9.378   .     S
Er16     V52    9.378   1_655     S
Er16     V92    9.378   1_655     S
Er17     V65    9.378   .     S
Er17     V74    9.378   .     S
Er17     V53    9.378   .     S
Er17     V94    9.378   .     S
Er18     V66    9.378   .     S
Er18     V73    9.378   1_556     S
Er18     V54    9.378   .     S
Er18     V93    9.378   1_556     S
Er19     V67    9.378   .     S
Er19     V76    9.378   .     S
Er19     V55    9.378   .     S
Er19     V96    9.378   .     S
Er20     V68    9.378   .     S
Er20     V75    9.378   1_556     S
Er20     V56    9.378   .     S
Er20     V95    9.378   1_556     S
Er21     V69    9.378   .     S
Er21     V78    9.378   .     S
Er21     V49    9.378   1_655     S
Er21     V90    9.378   1_655     S
Er22     V70    9.378   .     S
Er22     V77    9.378   1_556     S
Er22     V50    9.378   1_655     S
Er22     V89    9.378   1_656     S
Er23     V71    9.378   .     S
Er23     V80    9.378   .     S
Er23     V51    9.378   1_655     S
Er23     V92    9.378   1_655     S
Er24     V72    9.378   .     S
Er24     V79    9.378   1_556     S
Er24     V52    9.378   1_655     S
Er24     V91    9.378   1_656     S
Er25     V49    9.378   .     S
Er25     V73    9.378   .     S
Er25     V67    9.378   .     S
Er25     V91    9.378   .     S
Er26     V50    9.378   .     S
Er26     V74    9.378   .     S
Er26     V68    9.378   .     S
Er26     V92    9.378   .     S
Er27     V51    9.378   .     S
Er27     V75    9.378   .     S
Er27     V65    9.378   1_565     S
Er27     V89    9.378   1_565     S
Er28     V52    9.378   .     S
Er28     V76    9.378   .     S
Er28     V66    9.378   1_565     S
Er28     V90    9.378   1_565     S
Er29     V53    9.378   .     S
Er29     V77    9.378   .     S
Er29     V71    9.378   .     S
Er29     V95    9.378   .     S
Er30     V54    9.378   .     S
Er30     V78    9.378   .     S
Er30     V72    9.378   .     S
Er30     V96    9.378   .     S
Er31     V55    9.378   .     S
Er31     V79    9.378   .     S
Er31     V69    9.378   1_565     S
Er31     V93    9.378   1_565     S
Er32     V56    9.378   .     S
Er32     V80    9.378   .     S
Er32     V70    9.378   1_565     S
Er32     V94    9.378   1_565     S
Er33     V49    9.378   .     S
Er33     V65    9.378   .     S
Er33     V74    9.378   .     S
Er33     V90    9.378   .     S
Er34     V50    9.378   .     S
Er34     V66    9.378   .     S
Er34     V73    9.378   1_556     S
Er34     V89    9.378   1_556     S
Er35     V51    9.378   .     S
Er35     V67    9.378   .     S
Er35     V76    9.378   .     S
Er35     V92    9.378   .     S
Er36     V52    9.378   .     S
Er36     V68    9.378   .     S
Er36     V75    9.378   1_556     S
Er36     V91    9.378   1_556     S
Er37     V53    9.378   .     S
Er37     V69    9.378   .     S
Er37     V78    9.378   .     S
Er37     V94    9.378   .     S
Er38     V54    9.378   .     S
Er38     V70    9.378   .     S
Er38     V77    9.378   1_556     S
Er38     V93    9.378   1_556     S
Er39     V55    9.378   .     S
Er39     V71    9.378   .     S
Er39     V80    9.378   .     S
Er39     V96    9.378   .     S
Er40     V56    9.378   .     S
Er40     V72    9.378   .     S
Er40     V79    9.378   1_556     S
Er40     V95    9.378   1_556     S
Er41     V74    9.378   .     S
Er41     V67    9.378   .     S
Er41     V49    9.378   .     S
Er41     V92    9.378   .     S
Er42     V73    9.378   1_556     S
Er42     V68    9.378   .     S
Er42     V50    9.378   .     S
Er42     V91    9.378   1_556     S
Er43     V76    9.378   .     S
Er43     V65    9.378   1_565     S
Er43     V51    9.378   .     S
Er43     V90    9.378   1_565     S
Er44     V75    9.378   1_556     S
Er44     V66    9.378   1_565     S
Er44     V52    9.378   .     S
Er44     V89    9.378   1_566     S
Er45     V78    9.378   .     S
Er45     V71    9.378   .     S
Er45     V53    9.378   .     S
Er45     V96    9.378   .     S
Er46     V77    9.378   1_556     S
Er46     V72    9.378   .     S
Er46     V54    9.378   .     S
Er46     V95    9.378   1_556     S
Er47     V80    9.378   .     S
Er47     V69    9.378   1_565     S
Er47     V55    9.378   .     S
Er47     V94    9.378   1_565     S
Er48     V79    9.378   1_556     S
Er48     V70    9.378   1_565     S
Er48     V56    9.378   .     S
Er48     V93    9.378   1_566     S
V49     Ti114    10.829   .     S
V49     Ti99    10.829   .     S
V49     Ti113    10.829   .     S
V49     Ti97    10.829   .     S
V49     Ti121    10.829   .     S
V49     Ti125    10.829   1_455     S
V49     Er61    9.378   1_455     S
V49     Er21    9.378   1_455     S
V49     Er5    9.378   1_455     S
V49     Er13    9.378   1_455     S
V49     Er81    9.378   .     S
V50     Ti113    10.829   1_556     S
V50     Ti100    10.829   .     S
V50     Ti114    10.829   .     S
V50     Ti98    10.829   .     S
V50     Ti122    10.829   .     S
V50     Ti126    10.829   1_455     S
V50     Er62    9.378   1_455     S
V50     Er22    9.378   1_455     S
V50     Er6    9.378   1_455     S
V50     Er14    9.378   1_455     S
V50     Er82    9.378   .     S
V51     Ti116    10.829   .     S
V51     Ti97    10.829   1_565     S
V51     Ti115    10.829   .     S
V51     Ti99    10.829   .     S
V51     Ti123    10.829   .     S
V51     Ti127    10.829   1_455     S
V51     Er63    9.378   1_455     S
V51     Er23    9.378   1_455     S
V51     Er7    9.378   1_455     S
V51     Er15    9.378   1_455     S
V51     Er83    9.378   .     S
V52     Ti115    10.829   1_556     S
V52     Ti98    10.829   1_565     S
V52     Ti116    10.829   .     S
V52     Ti100    10.829   .     S
V52     Ti124    10.829   .     S
V52     Ti128    10.829   1_455     S
V52     Er64    9.378   1_455     S
V52     Er24    9.378   1_455     S
V52     Er8    9.378   1_455     S
V52     Er16    9.378   1_455     S
V52     Er84    9.378   .     S
V53     Ti118    10.829   .     S
V53     Ti103    10.829   .     S
V53     Ti117    10.829   .     S
V53     Ti101    10.829   .     S
V53     Ti125    10.829   .     S
V53     Ti121    10.829   .     S
V53     Er57    9.378   .     S
V53     Er85    9.378   .     S
V54     Ti117    10.829   1_556     S
V54     Ti104    10.829   .     S
V54     Ti118    10.829   .     S
V54     Ti102    10.829   .     S
V54     Ti126    10.829   .     S
V54     Ti122    10.829   .     S
V54     Er58    9.378   .     S
V54     Er86    9.378   .     S
V55     Ti120    10.829   .     S
V55     Ti101    10.829   1_565     S
V55     Ti119    10.829   .     S
V55     Ti103    10.829   .     S
V55     Ti127    10.829   .     S
V55     Ti123    10.829   .     S
V55     Er59    9.378   .     S
V55     Er87    9.378   .     S
V56     Ti119    10.829   1_556     S
V56     Ti102    10.829   1_565     S
V56     Ti120    10.829   .     S
V56     Ti104    10.829   .     S
V56     Ti128    10.829   .     S
V56     Ti124    10.829   .     S
V56     Er60    9.378   .     S
V56     Er88    9.378   .     S
Er57     V74    9.378   .     S
Er57     V67    9.378   .     S
Er57     V96    9.378   .     S
Er58     V73    9.378   1_556     S
Er58     V68    9.378   .     S
Er58     V95    9.378   1_556     S
Er59     V76    9.378   .     S
Er59     V65    9.378   1_565     S
Er59     V94    9.378   1_565     S
Er60     V75    9.378   1_556     S
Er60     V66    9.378   1_565     S
Er60     V93    9.378   1_566     S
Er61     V78    9.378   .     S
Er61     V71    9.378   .     S
Er61     V49    9.378   1_655     S
Er61     V92    9.378   1_655     S
Er62     V77    9.378   1_556     S
Er62     V72    9.378   .     S
Er62     V50    9.378   1_655     S
Er62     V91    9.378   1_656     S
Er63     V80    9.378   .     S
Er63     V69    9.378   1_565     S
Er63     V51    9.378   1_655     S
Er63     V90    9.378   1_665     S
Er64     V79    9.378   1_556     S
Er64     V70    9.378   1_565     S
Er64     V52    9.378   1_655     S
Er64     V89    9.378   1_666     S
V65     Ti106    10.829   .     S
V65     Ti101    10.829   .     S
V65     Ti105    10.829   .     S
V65     Ti97    10.829   .     S
V65     Ti121    10.829   .     S
V65     Ti123    10.829   1_545     S
V65     Er43    9.378   1_545     S
V65     Er59    9.378   1_545     S
V65     Er3    9.378   1_545     S
V65     Er27    9.378   1_545     S
V65     Er81    9.378   .     S
V66     Ti105    10.829   1_556     S
V66     Ti102    10.829   .     S
V66     Ti106    10.829   .     S
V66     Ti98    10.829   .     S
V66     Ti122    10.829   .     S
V66     Ti124    10.829   1_545     S
V66     Er44    9.378   1_545     S
V66     Er60    9.378   1_545     S
V66     Er4    9.378   1_545     S
V66     Er28    9.378   1_545     S
V66     Er82    9.378   .     S
V67     Ti108    10.829   .     S
V67     Ti103    10.829   .     S
V67     Ti107    10.829   .     S
V67     Ti99    10.829   .     S
V67     Ti123    10.829   .     S
V67     Ti121    10.829   .     S
V67     Er83    9.378   .     S
V68     Ti107    10.829   1_556     S
V68     Ti104    10.829   .     S
V68     Ti108    10.829   .     S
V68     Ti100    10.829   .     S
V68     Ti124    10.829   .     S
V68     Ti122    10.829   .     S
V68     Er84    9.378   .     S
V69     Ti110    10.829   .     S
V69     Ti97    10.829   1_655     S
V69     Ti109    10.829   .     S
V69     Ti101    10.829   .     S
V69     Ti125    10.829   .     S
V69     Ti127    10.829   1_545     S
V69     Er47    9.378   1_545     S
V69     Er63    9.378   1_545     S
V69     Er7    9.378   1_545     S
V69     Er31    9.378   1_545     S
V69     Er85    9.378   .     S
V70     Ti109    10.829   1_556     S
V70     Ti98    10.829   1_655     S
V70     Ti110    10.829   .     S
V70     Ti102    10.829   .     S
V70     Ti126    10.829   .     S
V70     Ti128    10.829   1_545     S
V70     Er48    9.378   1_545     S
V70     Er64    9.378   1_545     S
V70     Er8    9.378   1_545     S
V70     Er32    9.378   1_545     S
V70     Er86    9.378   .     S
V71     Ti112    10.829   .     S
V71     Ti99    10.829   1_655     S
V71     Ti111    10.829   .     S
V71     Ti103    10.829   .     S
V71     Ti127    10.829   .     S
V71     Ti125    10.829   .     S
V71     Er87    9.378   .     S
V72     Ti111    10.829   1_556     S
V72     Ti100    10.829   1_655     S
V72     Ti112    10.829   .     S
V72     Ti104    10.829   .     S
V72     Ti128    10.829   .     S
V72     Ti126    10.829   .     S
V72     Er88    9.378   .     S
V73     Ti107    10.829   .     S
V73     Ti117    10.829   .     S
V73     Ti113    10.829   .     S
V73     Ti105    10.829   .     S
V73     Ti121    10.829   .     S
V73     Ti122    10.829   1_554     S
V73     Er58    9.378   1_554     S
V73     Er18    9.378   1_554     S
V73     Er42    9.378   1_554     S
V73     Er34    9.378   1_554     S
V73     Er81    9.378   .     S
V74     Ti108    10.829   .     S
V74     Ti118    10.829   .     S
V74     Ti114    10.829   .     S
V74     Ti106    10.829   .     S
V74     Ti122    10.829   .     S
V74     Ti121    10.829   .     S
V74     Er82    9.378   .     S
V75     Ti105    10.829   1_565     S
V75     Ti119    10.829   .     S
V75     Ti115    10.829   .     S
V75     Ti107    10.829   .     S
V75     Ti123    10.829   .     S
V75     Ti124    10.829   1_554     S
V75     Er60    9.378   1_554     S
V75     Er20    9.378   1_554     S
V75     Er44    9.378   1_554     S
V75     Er36    9.378   1_554     S
V75     Er83    9.378   .     S
V76     Ti106    10.829   1_565     S
V76     Ti120    10.829   .     S
V76     Ti116    10.829   .     S
V76     Ti108    10.829   .     S
V76     Ti124    10.829   .     S
V76     Ti123    10.829   .     S
V76     Er84    9.378   .     S
V77     Ti111    10.829   .     S
V77     Ti113    10.829   1_655     S
V77     Ti117    10.829   .     S
V77     Ti109    10.829   .     S
V77     Ti125    10.829   .     S
V77     Ti126    10.829   1_554     S
V77     Er62    9.378   1_554     S
V77     Er22    9.378   1_554     S
V77     Er46    9.378   1_554     S
V77     Er38    9.378   1_554     S
V77     Er85    9.378   .     S
V78     Ti112    10.829   .     S
V78     Ti114    10.829   1_655     S
V78     Ti118    10.829   .     S
V78     Ti110    10.829   .     S
V78     Ti126    10.829   .     S
V78     Ti125    10.829   .     S
V78     Er86    9.378   .     S
V79     Ti109    10.829   1_565     S
V79     Ti115    10.829   1_655     S
V79     Ti119    10.829   .     S
V79     Ti111    10.829   .     S
V79     Ti127    10.829   .     S
V79     Ti128    10.829   1_554     S
V79     Er64    9.378   1_554     S
V79     Er24    9.378   1_554     S
V79     Er48    9.378   1_554     S
V79     Er40    9.378   1_554     S
V79     Er87    9.378   .     S
V80     Ti110    10.829   1_565     S
V80     Ti116    10.829   1_655     S
V80     Ti120    10.829   .     S
V80     Ti112    10.829   .     S
V80     Ti128    10.829   .     S
V80     Ti127    10.829   .     S
V80     Er88    9.378   .     S
Er81     V89    9.378   .     S
Er82     V90    9.378   .     S
Er83     V91    9.378   .     S
Er84     V92    9.378   .     S
Er85     V93    9.378   .     S
Er86     V94    9.378   .     S
Er87     V95    9.378   .     S
Er88     V96    9.378   .     S
V89     Ti97    10.829   .     S
V89     Ti105    10.829   .     S
V89     Ti113    10.829   .     S
V89     Ti98    10.829   1_554     S
V89     Ti109    10.829   1_455     S
V89     Ti115    10.829   1_545     S
V89     Er64    9.378   1_444     S
V89     Er7    9.378   1_445     S
V89     Er44    9.378   1_544     S
V89     Er22    9.378   1_454     S
V89     Er13    9.378   1_455     S
V89     Er27    9.378   1_545     S
V89     Er34    9.378   1_554     S
V90     Ti98    10.829   .     S
V90     Ti106    10.829   .     S
V90     Ti114    10.829   .     S
V90     Ti97    10.829   .     S
V90     Ti110    10.829   1_455     S
V90     Ti116    10.829   1_545     S
V90     Er63    9.378   1_445     S
V90     Er8    9.378   1_445     S
V90     Er43    9.378   1_545     S
V90     Er21    9.378   1_455     S
V90     Er14    9.378   1_455     S
V90     Er28    9.378   1_545     S
V91     Ti99    10.829   .     S
V91     Ti107    10.829   .     S
V91     Ti115    10.829   .     S
V91     Ti100    10.829   1_554     S
V91     Ti111    10.829   1_455     S
V91     Ti113    10.829   .     S
V91     Er62    9.378   1_454     S
V91     Er5    9.378   1_455     S
V91     Er42    9.378   1_554     S
V91     Er24    9.378   1_454     S
V91     Er15    9.378   1_455     S
V91     Er36    9.378   1_554     S
V92     Ti100    10.829   .     S
V92     Ti108    10.829   .     S
V92     Ti116    10.829   .     S
V92     Ti99    10.829   .     S
V92     Ti112    10.829   1_455     S
V92     Ti114    10.829   .     S
V92     Er61    9.378   1_455     S
V92     Er6    9.378   1_455     S
V92     Er23    9.378   1_455     S
V92     Er16    9.378   1_455     S
V93     Ti101    10.829   .     S
V93     Ti109    10.829   .     S
V93     Ti117    10.829   .     S
V93     Ti102    10.829   1_554     S
V93     Ti105    10.829   .     S
V93     Ti119    10.829   1_545     S
V93     Er60    9.378   1_544     S
V93     Er3    9.378   1_545     S
V93     Er48    9.378   1_544     S
V93     Er18    9.378   1_554     S
V93     Er31    9.378   1_545     S
V93     Er38    9.378   1_554     S
V94     Ti102    10.829   .     S
V94     Ti110    10.829   .     S
V94     Ti118    10.829   .     S
V94     Ti101    10.829   .     S
V94     Ti106    10.829   .     S
V94     Ti120    10.829   1_545     S
V94     Er59    9.378   1_545     S
V94     Er4    9.378   1_545     S
V94     Er47    9.378   1_545     S
V94     Er32    9.378   1_545     S
V95     Ti103    10.829   .     S
V95     Ti111    10.829   .     S
V95     Ti119    10.829   .     S
V95     Ti104    10.829   1_554     S
V95     Ti107    10.829   .     S
V95     Ti117    10.829   .     S
V95     Er58    9.378   1_554     S
V95     Er46    9.378   1_554     S
V95     Er20    9.378   1_554     S
V95     Er40    9.378   1_554     S
V96     Ti104    10.829   .     S
V96     Ti112    10.829   .     S
V96     Ti120    10.829   .     S
V96     Ti103    10.829   .     S
V96     Ti108    10.829   .     S
V96     Ti118    10.829   .     S
Ti97     V69    10.829   1_455     S
Ti97     V51    10.829   1_545     S
Ti98     V70    10.829   1_455     S
Ti98     V52    10.829   1_545     S
Ti98     V89    10.829   1_556     S
Ti99     V71    10.829   1_455     S
Ti100     V72    10.829   1_455     S
Ti100     V91    10.829   1_556     S
Ti101     V55    10.829   1_545     S
Ti102     V56    10.829   1_545     S
Ti102     V93    10.829   1_556     S
Ti104     V95    10.829   1_556     S
Ti105     V75    10.829   1_545     S
Ti105     V66    10.829   1_554     S
Ti106     V76    10.829   1_545     S
Ti107     V68    10.829   1_554     S
Ti109     V79    10.829   1_545     S
Ti109     V70    10.829   1_554     S
Ti109     V89    10.829   1_655     S
Ti110     V80    10.829   1_545     S
Ti110     V90    10.829   1_655     S
Ti111     V72    10.829   1_554     S
Ti111     V91    10.829   1_655     S
Ti112     V92    10.829   1_655     S
Ti113     V77    10.829   1_455     S
Ti113     V50    10.829   1_554     S
Ti114     V78    10.829   1_455     S
Ti115     V79    10.829   1_455     S
Ti115     V52    10.829   1_554     S
Ti115     V89    10.829   1_565     S
Ti116     V80    10.829   1_455     S
Ti116     V90    10.829   1_565     S
Ti117     V54    10.829   1_554     S
Ti119     V56    10.829   1_554     S
Ti119     V93    10.829   1_565     S
Ti120     V94    10.829   1_565     S
Ti122     V73    10.829   1_556     S
Ti123     V65    10.829   1_565     S
Ti124     V66    10.829   1_565     S
Ti124     V75    10.829   1_556     S
Ti125     V49    10.829   1_655     S
Ti126     V50    10.829   1_655     S
Ti126     V77    10.829   1_556     S
Ti127     V51    10.829   1_655     S
Ti127     V69    10.829   1_565     S
Ti128     V52    10.829   1_655     S
Ti128     V70    10.829   1_565     S
Ti128     V79    10.829   1_556     S
