data_xal
_audit_creation_date              2019-12-31
_audit_creation_method            'Pymatgen'
_symmetry_space_group_name_H-M    'P1'
_symmetry_Int_Tables_number       1
loop_
_symmetry_equiv_pos_as_xyz
  x,y,z
_cell_length_a                    30.0003
_cell_length_b                    30.0003
_cell_length_c                    28.284
_cell_angle_alpha                 90.0
_cell_angle_beta                 90.0
_cell_angle_gamma                 90.0
loop_
_atom_site_label
_atom_site_type_symbol
_atom_site_fract_x
_atom_site_fract_y
_atom_site_fract_z
V1     V     0.0   0.0   0.0
V2     V     0.0   0.0   0.5
V3     V     0.0   0.3333   0.0
V4     V     0.0   0.3333   0.5
V5     V     0.0   0.6667   0.0
V6     V     0.0   0.6667   0.5
V7     V     0.3333   0.0   0.0
V8     V     0.3333   0.0   0.5
V9     V     0.3333   0.3333   0.0
V10     V     0.3333   0.3333   0.5
V11     V     0.3333   0.6667   0.0
V12     V     0.3333   0.6667   0.5
V13     V     0.6667   0.0   0.0
V14     V     0.6667   0.0   0.5
V15     V     0.6667   0.3333   0.0
V16     V     0.6667   0.3333   0.5
V17     V     0.6667   0.6667   0.0
V18     V     0.6667   0.6667   0.5
Er19     Er     0.1667   0.1667   0.25
Er20     Er     0.1667   0.1667   0.75
Er21     Er     0.1667   0.5   0.25
Er22     Er     0.1667   0.5   0.75
Er23     Er     0.1667   0.8333   0.25
Er24     Er     0.1667   0.8333   0.75
Er25     Er     0.5   0.1667   0.25
Er26     Er     0.5   0.1667   0.75
Er27     Er     0.5   0.5   0.25
Er28     Er     0.5   0.5   0.75
Er29     Er     0.5   0.8333   0.25
Er30     Er     0.5   0.8333   0.75
Er31     Er     0.8333   0.1667   0.25
Er32     Er     0.8333   0.1667   0.75
Er33     Er     0.8333   0.5   0.25
Er34     Er     0.8333   0.5   0.75
Er35     Er     0.8333   0.8333   0.25
Er36     Er     0.8333   0.8333   0.75
loop_
_geom_bond_atom_site_label_1
_geom_bond_atom_site_label_2
_geom_bond_distance
_geom_bond_site_symmetry_2
_ccdc_geom_bond_type
V1     Er24    10.0   1_544     S
V1     Er20    10.0   1_554     S
V1     Er32    10.0   1_454     S
V1     Er36    10.0   1_444     S
V1     V3    10.0   .     S
V1     V5    10.0   1_545     S
V1     V7    10.0   .     S
V1     V13    10.0   1_455     S
V1     Er19    10.0   .     S
V1     Er31    10.0   1_455     S
V1     Er35    10.0   1_445     S
V1     Er23    10.0   1_545     S
V2     Er23    10.0   1_545     S
V2     Er19    10.0   .     S
V2     Er31    10.0   1_455     S
V2     Er35    10.0   1_445     S
V2     V4    10.0   .     S
V2     V6    10.0   1_545     S
V2     V8    10.0   .     S
V2     V14    10.0   1_455     S
V2     Er20    10.0   .     S
V2     Er32    10.0   1_455     S
V2     Er36    10.0   1_445     S
V2     Er24    10.0   1_545     S
V3     Er20    10.0   1_554     S
V3     Er22    10.0   1_554     S
V3     Er34    10.0   1_454     S
V3     Er32    10.0   1_454     S
V3     V5    10.0   .     S
V3     V9    10.0   .     S
V3     V15    10.0   1_455     S
V3     Er21    10.0   .     S
V3     Er33    10.0   1_455     S
V3     Er31    10.0   1_455     S
V3     Er19    10.0   .     S
V4     Er19    10.0   .     S
V4     Er21    10.0   .     S
V4     Er33    10.0   1_455     S
V4     Er31    10.0   1_455     S
V4     V6    10.0   .     S
V4     V10    10.0   .     S
V4     V16    10.0   1_455     S
V4     Er22    10.0   .     S
V4     Er34    10.0   1_455     S
V4     Er32    10.0   1_455     S
V4     Er20    10.0   .     S
V5     Er22    10.0   1_554     S
V5     Er24    10.0   1_554     S
V5     Er36    10.0   1_454     S
V5     Er34    10.0   1_454     S
V5     V1    10.0   1_565     S
V5     V11    10.0   .     S
V5     V17    10.0   1_455     S
V5     Er23    10.0   .     S
V5     Er35    10.0   1_455     S
V5     Er33    10.0   1_455     S
V5     Er21    10.0   .     S
V6     Er21    10.0   .     S
V6     Er23    10.0   .     S
V6     Er35    10.0   1_455     S
V6     Er33    10.0   1_455     S
V6     V2    10.0   1_565     S
V6     V12    10.0   .     S
V6     V18    10.0   1_455     S
V6     Er24    10.0   .     S
V6     Er36    10.0   1_455     S
V6     Er34    10.0   1_455     S
V6     Er22    10.0   .     S
V7     Er30    10.0   1_544     S
V7     Er26    10.0   1_554     S
V7     Er20    10.0   1_554     S
V7     Er24    10.0   1_544     S
V7     V9    10.0   .     S
V7     V11    10.0   1_545     S
V7     V13    10.0   .     S
V7     Er25    10.0   .     S
V7     Er19    10.0   .     S
V7     Er23    10.0   1_545     S
V7     Er29    10.0   1_545     S
V8     Er29    10.0   1_545     S
V8     Er25    10.0   .     S
V8     Er19    10.0   .     S
V8     Er23    10.0   1_545     S
V8     V10    10.0   .     S
V8     V12    10.0   1_545     S
V8     V14    10.0   .     S
V8     Er26    10.0   .     S
V8     Er20    10.0   .     S
V8     Er24    10.0   1_545     S
V8     Er30    10.0   1_545     S
V9     Er26    10.0   1_554     S
V9     Er28    10.0   1_554     S
V9     Er22    10.0   1_554     S
V9     Er20    10.0   1_554     S
V9     V11    10.0   .     S
V9     V15    10.0   .     S
V9     Er27    10.0   .     S
V9     Er21    10.0   .     S
V9     Er19    10.0   .     S
V9     Er25    10.0   .     S
V10     Er25    10.0   .     S
V10     Er27    10.0   .     S
V10     Er21    10.0   .     S
V10     Er19    10.0   .     S
V10     V12    10.0   .     S
V10     V16    10.0   .     S
V10     Er28    10.0   .     S
V10     Er22    10.0   .     S
V10     Er20    10.0   .     S
V10     Er26    10.0   .     S
V11     Er28    10.0   1_554     S
V11     Er30    10.0   1_554     S
V11     Er24    10.0   1_554     S
V11     Er22    10.0   1_554     S
V11     V7    10.0   1_565     S
V11     V17    10.0   .     S
V11     Er29    10.0   .     S
V11     Er23    10.0   .     S
V11     Er21    10.0   .     S
V11     Er27    10.0   .     S
V12     Er27    10.0   .     S
V12     Er29    10.0   .     S
V12     Er23    10.0   .     S
V12     Er21    10.0   .     S
V12     V8    10.0   1_565     S
V12     V18    10.0   .     S
V12     Er30    10.0   .     S
V12     Er24    10.0   .     S
V12     Er22    10.0   .     S
V12     Er28    10.0   .     S
V13     Er36    10.0   1_544     S
V13     Er32    10.0   1_554     S
V13     Er26    10.0   1_554     S
V13     Er30    10.0   1_544     S
V13     V15    10.0   .     S
V13     V17    10.0   1_545     S
V13     V1    10.0   1_655     S
V13     Er31    10.0   .     S
V13     Er25    10.0   .     S
V13     Er29    10.0   1_545     S
V13     Er35    10.0   1_545     S
V14     Er35    10.0   1_545     S
V14     Er31    10.0   .     S
V14     Er25    10.0   .     S
V14     Er29    10.0   1_545     S
V14     V16    10.0   .     S
V14     V18    10.0   1_545     S
V14     V2    10.0   1_655     S
V14     Er32    10.0   .     S
V14     Er26    10.0   .     S
V14     Er30    10.0   1_545     S
V14     Er36    10.0   1_545     S
V15     Er32    10.0   1_554     S
V15     Er34    10.0   1_554     S
V15     Er28    10.0   1_554     S
V15     Er26    10.0   1_554     S
V15     V17    10.0   .     S
V15     V3    10.0   1_655     S
V15     Er33    10.0   .     S
V15     Er27    10.0   .     S
V15     Er25    10.0   .     S
V15     Er31    10.0   .     S
V16     Er31    10.0   .     S
V16     Er33    10.0   .     S
V16     Er27    10.0   .     S
V16     Er25    10.0   .     S
V16     V18    10.0   .     S
V16     V4    10.0   1_655     S
V16     Er34    10.0   .     S
V16     Er28    10.0   .     S
V16     Er26    10.0   .     S
V16     Er32    10.0   .     S
V17     Er34    10.0   1_554     S
V17     Er36    10.0   1_554     S
V17     Er30    10.0   1_554     S
V17     Er28    10.0   1_554     S
V17     V13    10.0   1_565     S
V17     V5    10.0   1_655     S
V17     Er35    10.0   .     S
V17     Er29    10.0   .     S
V17     Er27    10.0   .     S
V17     Er33    10.0   .     S
V18     Er33    10.0   .     S
V18     Er35    10.0   .     S
V18     Er29    10.0   .     S
V18     Er27    10.0   .     S
V18     V14    10.0   1_565     S
V18     V6    10.0   1_655     S
V18     Er36    10.0   .     S
V18     Er30    10.0   .     S
V18     Er28    10.0   .     S
V18     Er34    10.0   .     S
Er20     V3    10.0   1_556     S
Er20     V1    10.0   1_556     S
Er20     V7    10.0   1_556     S
Er20     V9    10.0   1_556     S
Er22     V5    10.0   1_556     S
Er22     V3    10.0   1_556     S
Er22     V9    10.0   1_556     S
Er22     V11    10.0   1_556     S
Er23     V2    10.0   1_565     S
Er23     V8    10.0   1_565     S
Er23     V7    10.0   1_565     S
Er23     V1    10.0   1_565     S
Er24     V1    10.0   1_566     S
Er24     V5    10.0   1_556     S
Er24     V11    10.0   1_556     S
Er24     V7    10.0   1_566     S
Er24     V8    10.0   1_565     S
Er24     V2    10.0   1_565     S
Er26     V9    10.0   1_556     S
Er26     V7    10.0   1_556     S
Er26     V13    10.0   1_556     S
Er26     V15    10.0   1_556     S
Er28     V11    10.0   1_556     S
Er28     V9    10.0   1_556     S
Er28     V15    10.0   1_556     S
Er28     V17    10.0   1_556     S
Er29     V8    10.0   1_565     S
Er29     V14    10.0   1_565     S
Er29     V13    10.0   1_565     S
Er29     V7    10.0   1_565     S
Er30     V7    10.0   1_566     S
Er30     V11    10.0   1_556     S
Er30     V17    10.0   1_556     S
Er30     V13    10.0   1_566     S
Er30     V14    10.0   1_565     S
Er30     V8    10.0   1_565     S
Er31     V2    10.0   1_655     S
Er31     V4    10.0   1_655     S
Er31     V1    10.0   1_655     S
Er31     V3    10.0   1_655     S
Er32     V15    10.0   1_556     S
Er32     V13    10.0   1_556     S
Er32     V1    10.0   1_656     S
Er32     V3    10.0   1_656     S
Er32     V2    10.0   1_655     S
Er32     V4    10.0   1_655     S
Er33     V4    10.0   1_655     S
Er33     V6    10.0   1_655     S
Er33     V3    10.0   1_655     S
Er33     V5    10.0   1_655     S
Er34     V17    10.0   1_556     S
Er34     V15    10.0   1_556     S
Er34     V3    10.0   1_656     S
Er34     V5    10.0   1_656     S
Er34     V4    10.0   1_655     S
Er34     V6    10.0   1_655     S
Er35     V14    10.0   1_565     S
Er35     V6    10.0   1_655     S
Er35     V2    10.0   1_665     S
Er35     V5    10.0   1_655     S
Er35     V1    10.0   1_665     S
Er35     V13    10.0   1_565     S
Er36     V13    10.0   1_566     S
Er36     V17    10.0   1_556     S
Er36     V5    10.0   1_656     S
Er36     V1    10.0   1_666     S
Er36     V6    10.0   1_655     S
Er36     V2    10.0   1_665     S
Er36     V14    10.0   1_565     S
