data_xam
_audit_creation_date              2019-12-31
_audit_creation_method            'Pymatgen'
_symmetry_space_group_name_H-M    'P1'
_symmetry_Int_Tables_number       1
loop_
_symmetry_equiv_pos_as_xyz
  x,y,z
_cell_length_a                    44.8018
_cell_length_b                    44.8018
_cell_length_c                    44.8018
_cell_angle_alpha                 90.0
_cell_angle_beta                 90.0
_cell_angle_gamma                 90.0
loop_
_atom_site_label
_atom_site_type_symbol
_atom_site_fract_x
_atom_site_fract_y
_atom_site_fract_z
Er1     Er     0.375   0.375   0.375
Er2     Er     0.375   0.375   0.875
Er3     Er     0.375   0.875   0.375
Er4     Er     0.375   0.875   0.875
Er5     Er     0.875   0.375   0.375
Er6     Er     0.875   0.375   0.875
Er7     Er     0.875   0.875   0.375
Er8     Er     0.875   0.875   0.875
Er9     Er     0.125   0.375   0.125
Er10     Er     0.125   0.375   0.625
Er11     Er     0.125   0.875   0.125
Er12     Er     0.125   0.875   0.625
Er13     Er     0.625   0.375   0.125
Er14     Er     0.625   0.375   0.625
Er15     Er     0.625   0.875   0.125
Er16     Er     0.625   0.875   0.625
Er17     Er     0.375   0.375   0.125
Er18     Er     0.375   0.375   0.625
Er19     Er     0.375   0.875   0.125
Er20     Er     0.375   0.875   0.625
Er21     Er     0.875   0.375   0.125
Er22     Er     0.875   0.375   0.625
Er23     Er     0.875   0.875   0.125
Er24     Er     0.875   0.875   0.625
Er25     Er     0.375   0.125   0.125
Er26     Er     0.375   0.125   0.625
Er27     Er     0.375   0.625   0.125
Er28     Er     0.375   0.625   0.625
Er29     Er     0.875   0.125   0.125
Er30     Er     0.875   0.125   0.625
Er31     Er     0.875   0.625   0.125
Er32     Er     0.875   0.625   0.625
Er33     Er     0.125   0.375   0.375
Er34     Er     0.125   0.375   0.875
Er35     Er     0.125   0.875   0.375
Er36     Er     0.125   0.875   0.875
Er37     Er     0.625   0.375   0.375
Er38     Er     0.625   0.375   0.875
Er39     Er     0.625   0.875   0.375
Er40     Er     0.625   0.875   0.875
Er41     Er     0.375   0.125   0.375
Er42     Er     0.375   0.125   0.875
Er43     Er     0.375   0.625   0.375
Er44     Er     0.375   0.625   0.875
Er45     Er     0.875   0.125   0.375
Er46     Er     0.875   0.125   0.875
Er47     Er     0.875   0.625   0.375
Er48     Er     0.875   0.625   0.875
Er49     Er     0.125   0.125   0.375
Er50     Er     0.125   0.125   0.875
Er51     Er     0.125   0.625   0.375
Er52     Er     0.125   0.625   0.875
Er53     Er     0.625   0.125   0.375
Er54     Er     0.625   0.125   0.875
Er55     Er     0.625   0.625   0.375
Er56     Er     0.625   0.625   0.875
Er57     Er     0.125   0.125   0.125
Er58     Er     0.125   0.125   0.625
Er59     Er     0.125   0.625   0.125
Er60     Er     0.125   0.625   0.625
Er61     Er     0.625   0.125   0.125
Er62     Er     0.625   0.125   0.625
Er63     Er     0.625   0.625   0.125
Er64     Er     0.625   0.625   0.625
V65     V     0.0   0.0   0.25
V66     V     0.0   0.0   0.75
V67     V     0.0   0.5   0.25
V68     V     0.0   0.5   0.75
V69     V     0.5   0.0   0.25
V70     V     0.5   0.0   0.75
V71     V     0.5   0.5   0.25
V72     V     0.5   0.5   0.75
V73     V     0.25   0.0   0.0
V74     V     0.25   0.0   0.5
V75     V     0.25   0.5   0.0
V76     V     0.25   0.5   0.5
V77     V     0.75   0.0   0.0
V78     V     0.75   0.0   0.5
V79     V     0.75   0.5   0.0
V80     V     0.75   0.5   0.5
V81     V     0.0   0.25   0.0
V82     V     0.0   0.25   0.5
V83     V     0.0   0.75   0.0
V84     V     0.0   0.75   0.5
V85     V     0.5   0.25   0.0
V86     V     0.5   0.25   0.5
V87     V     0.5   0.75   0.0
V88     V     0.5   0.75   0.5
V89     V     0.25   0.25   0.0
V90     V     0.25   0.25   0.5
V91     V     0.25   0.75   0.0
V92     V     0.25   0.75   0.5
V93     V     0.75   0.25   0.0
V94     V     0.75   0.25   0.5
V95     V     0.75   0.75   0.0
V96     V     0.75   0.75   0.5
V97     V     0.0   0.25   0.25
V98     V     0.0   0.25   0.75
V99     V     0.0   0.75   0.25
V100     V     0.0   0.75   0.75
V101     V     0.5   0.25   0.25
V102     V     0.5   0.25   0.75
V103     V     0.5   0.75   0.25
V104     V     0.5   0.75   0.75
V105     V     0.25   0.0   0.25
V106     V     0.25   0.0   0.75
V107     V     0.25   0.5   0.25
V108     V     0.25   0.5   0.75
V109     V     0.75   0.0   0.25
V110     V     0.75   0.0   0.75
V111     V     0.75   0.5   0.25
V112     V     0.75   0.5   0.75
loop_
_geom_bond_atom_site_label_1
_geom_bond_atom_site_label_2
_geom_bond_distance
_geom_bond_site_symmetry_2
_ccdc_geom_bond_type
Er1     V90    9.7   .     S
Er1     V101    9.7   .     S
Er1     V107    9.7   .     S
Er1     V71    9.7   .     S
Er1     V86    9.7   .     S
Er1     V76    9.7   .     S
Er2     V89    9.7   1_556     S
Er2     V102    9.7   .     S
Er2     V108    9.7   .     S
Er2     V72    9.7   .     S
Er2     V85    9.7   1_556     S
Er2     V75    9.7   1_556     S
Er3     V92    9.7   .     S
Er3     V103    9.7   .     S
Er3     V105    9.7   1_565     S
Er3     V69    9.7   1_565     S
Er3     V88    9.7   .     S
Er3     V74    9.7   1_565     S
Er4     V91    9.7   1_556     S
Er4     V104    9.7   .     S
Er4     V106    9.7   1_565     S
Er4     V70    9.7   1_565     S
Er4     V87    9.7   1_556     S
Er4     V73    9.7   1_566     S
Er5     V94    9.7   .     S
Er5     V97    9.7   1_655     S
Er5     V111    9.7   .     S
Er5     V67    9.7   1_655     S
Er5     V82    9.7   1_655     S
Er5     V80    9.7   .     S
Er6     V93    9.7   1_556     S
Er6     V98    9.7   1_655     S
Er6     V112    9.7   .     S
Er6     V68    9.7   1_655     S
Er6     V81    9.7   1_656     S
Er6     V79    9.7   1_556     S
Er7     V96    9.7   .     S
Er7     V99    9.7   1_655     S
Er7     V109    9.7   1_565     S
Er7     V65    9.7   1_665     S
Er7     V84    9.7   1_655     S
Er7     V78    9.7   1_565     S
Er8     V95    9.7   1_556     S
Er8     V100    9.7   1_655     S
Er8     V110    9.7   1_565     S
Er8     V66    9.7   1_665     S
Er8     V83    9.7   1_656     S
Er8     V77    9.7   1_566     S
Er9     V89    9.7   .     S
Er9     V97    9.7   .     S
Er9     V81    9.7   .     S
Er9     V107    9.7   .     S
Er9     V67    9.7   .     S
Er9     V75    9.7   .     S
Er10     V90    9.7   .     S
Er10     V98    9.7   .     S
Er10     V82    9.7   .     S
Er10     V108    9.7   .     S
Er10     V68    9.7   .     S
Er10     V76    9.7   .     S
Er11     V91    9.7   .     S
Er11     V99    9.7   .     S
Er11     V83    9.7   .     S
Er11     V105    9.7   1_565     S
Er11     V65    9.7   1_565     S
Er11     V73    9.7   1_565     S
Er12     V92    9.7   .     S
Er12     V100    9.7   .     S
Er12     V84    9.7   .     S
Er12     V106    9.7   1_565     S
Er12     V66    9.7   1_565     S
Er12     V74    9.7   1_565     S
Er13     V93    9.7   .     S
Er13     V101    9.7   .     S
Er13     V85    9.7   .     S
Er13     V111    9.7   .     S
Er13     V71    9.7   .     S
Er13     V79    9.7   .     S
Er14     V94    9.7   .     S
Er14     V102    9.7   .     S
Er14     V86    9.7   .     S
Er14     V112    9.7   .     S
Er14     V72    9.7   .     S
Er14     V80    9.7   .     S
Er15     V95    9.7   .     S
Er15     V103    9.7   .     S
Er15     V87    9.7   .     S
Er15     V109    9.7   1_565     S
Er15     V69    9.7   1_565     S
Er15     V77    9.7   1_565     S
Er16     V96    9.7   .     S
Er16     V104    9.7   .     S
Er16     V88    9.7   .     S
Er16     V110    9.7   1_565     S
Er16     V70    9.7   1_565     S
Er16     V78    9.7   1_565     S
Er17     V89    9.7   .     S
Er17     V75    9.7   .     S
Er17     V85    9.7   .     S
Er17     V107    9.7   .     S
Er17     V101    9.7   .     S
Er17     V71    9.7   .     S
Er18     V90    9.7   .     S
Er18     V76    9.7   .     S
Er18     V86    9.7   .     S
Er18     V108    9.7   .     S
Er18     V102    9.7   .     S
Er18     V72    9.7   .     S
Er19     V91    9.7   .     S
Er19     V73    9.7   1_565     S
Er19     V87    9.7   .     S
Er19     V105    9.7   1_565     S
Er19     V103    9.7   .     S
Er19     V69    9.7   1_565     S
Er20     V92    9.7   .     S
Er20     V74    9.7   1_565     S
Er20     V88    9.7   .     S
Er20     V106    9.7   1_565     S
Er20     V104    9.7   .     S
Er20     V70    9.7   1_565     S
Er21     V93    9.7   .     S
Er21     V79    9.7   .     S
Er21     V81    9.7   1_655     S
Er21     V111    9.7   .     S
Er21     V97    9.7   1_655     S
Er21     V67    9.7   1_655     S
Er22     V94    9.7   .     S
Er22     V80    9.7   .     S
Er22     V82    9.7   1_655     S
Er22     V112    9.7   .     S
Er22     V98    9.7   1_655     S
Er22     V68    9.7   1_655     S
Er23     V95    9.7   .     S
Er23     V77    9.7   1_565     S
Er23     V83    9.7   1_655     S
Er23     V109    9.7   1_565     S
Er23     V99    9.7   1_655     S
Er23     V65    9.7   1_665     S
Er24     V96    9.7   .     S
Er24     V78    9.7   1_565     S
Er24     V84    9.7   1_655     S
Er24     V110    9.7   1_565     S
Er24     V100    9.7   1_655     S
Er24     V66    9.7   1_665     S
Er25     V89    9.7   .     S
Er25     V105    9.7   .     S
Er25     V73    9.7   .     S
Er25     V101    9.7   .     S
Er25     V69    9.7   .     S
Er25     V85    9.7   .     S
Er26     V90    9.7   .     S
Er26     V106    9.7   .     S
Er26     V74    9.7   .     S
Er26     V102    9.7   .     S
Er26     V70    9.7   .     S
Er26     V86    9.7   .     S
Er27     V91    9.7   .     S
Er27     V107    9.7   .     S
Er27     V75    9.7   .     S
Er27     V103    9.7   .     S
Er27     V71    9.7   .     S
Er27     V87    9.7   .     S
Er28     V92    9.7   .     S
Er28     V108    9.7   .     S
Er28     V76    9.7   .     S
Er28     V104    9.7   .     S
Er28     V72    9.7   .     S
Er28     V88    9.7   .     S
Er29     V93    9.7   .     S
Er29     V109    9.7   .     S
Er29     V77    9.7   .     S
Er29     V97    9.7   1_655     S
Er29     V65    9.7   1_655     S
Er29     V81    9.7   1_655     S
Er30     V94    9.7   .     S
Er30     V110    9.7   .     S
Er30     V78    9.7   .     S
Er30     V98    9.7   1_655     S
Er30     V66    9.7   1_655     S
Er30     V82    9.7   1_655     S
Er31     V95    9.7   .     S
Er31     V111    9.7   .     S
Er31     V79    9.7   .     S
Er31     V99    9.7   1_655     S
Er31     V67    9.7   1_655     S
Er31     V83    9.7   1_655     S
Er32     V96    9.7   .     S
Er32     V112    9.7   .     S
Er32     V80    9.7   .     S
Er32     V100    9.7   1_655     S
Er32     V68    9.7   1_655     S
Er32     V84    9.7   1_655     S
Er33     V97    9.7   .     S
Er33     V67    9.7   .     S
Er33     V90    9.7   .     S
Er33     V107    9.7   .     S
Er33     V82    9.7   .     S
Er33     V76    9.7   .     S
Er34     V98    9.7   .     S
Er34     V68    9.7   .     S
Er34     V89    9.7   1_556     S
Er34     V108    9.7   .     S
Er34     V81    9.7   1_556     S
Er34     V75    9.7   1_556     S
Er35     V99    9.7   .     S
Er35     V65    9.7   1_565     S
Er35     V92    9.7   .     S
Er35     V105    9.7   1_565     S
Er35     V84    9.7   .     S
Er35     V74    9.7   1_565     S
Er36     V100    9.7   .     S
Er36     V66    9.7   1_565     S
Er36     V91    9.7   1_556     S
Er36     V106    9.7   1_565     S
Er36     V83    9.7   1_556     S
Er36     V73    9.7   1_566     S
Er37     V101    9.7   .     S
Er37     V71    9.7   .     S
Er37     V94    9.7   .     S
Er37     V111    9.7   .     S
Er37     V86    9.7   .     S
Er37     V80    9.7   .     S
Er38     V102    9.7   .     S
Er38     V72    9.7   .     S
Er38     V93    9.7   1_556     S
Er38     V112    9.7   .     S
Er38     V85    9.7   1_556     S
Er38     V79    9.7   1_556     S
Er39     V103    9.7   .     S
Er39     V69    9.7   1_565     S
Er39     V96    9.7   .     S
Er39     V109    9.7   1_565     S
Er39     V88    9.7   .     S
Er39     V78    9.7   1_565     S
Er40     V104    9.7   .     S
Er40     V70    9.7   1_565     S
Er40     V95    9.7   1_556     S
Er40     V110    9.7   1_565     S
Er40     V87    9.7   1_556     S
Er40     V77    9.7   1_566     S
Er41     V105    9.7   .     S
Er41     V69    9.7   .     S
Er41     V90    9.7   .     S
Er41     V101    9.7   .     S
Er41     V74    9.7   .     S
Er41     V86    9.7   .     S
Er42     V106    9.7   .     S
Er42     V70    9.7   .     S
Er42     V89    9.7   1_556     S
Er42     V102    9.7   .     S
Er42     V73    9.7   1_556     S
Er42     V85    9.7   1_556     S
Er43     V107    9.7   .     S
Er43     V71    9.7   .     S
Er43     V92    9.7   .     S
Er43     V103    9.7   .     S
Er43     V76    9.7   .     S
Er43     V88    9.7   .     S
Er44     V108    9.7   .     S
Er44     V72    9.7   .     S
Er44     V91    9.7   1_556     S
Er44     V104    9.7   .     S
Er44     V75    9.7   1_556     S
Er44     V87    9.7   1_556     S
Er45     V109    9.7   .     S
Er45     V65    9.7   1_655     S
Er45     V94    9.7   .     S
Er45     V97    9.7   1_655     S
Er45     V78    9.7   .     S
Er45     V82    9.7   1_655     S
Er46     V110    9.7   .     S
Er46     V66    9.7   1_655     S
Er46     V93    9.7   1_556     S
Er46     V98    9.7   1_655     S
Er46     V77    9.7   1_556     S
Er46     V81    9.7   1_656     S
Er47     V111    9.7   .     S
Er47     V67    9.7   1_655     S
Er47     V96    9.7   .     S
Er47     V99    9.7   1_655     S
Er47     V80    9.7   .     S
Er47     V84    9.7   1_655     S
Er48     V112    9.7   .     S
Er48     V68    9.7   1_655     S
Er48     V95    9.7   1_556     S
Er48     V100    9.7   1_655     S
Er48     V79    9.7   1_556     S
Er48     V83    9.7   1_656     S
Er49     V97    9.7   .     S
Er49     V105    9.7   .     S
Er49     V65    9.7   .     S
Er49     V90    9.7   .     S
Er49     V82    9.7   .     S
Er49     V74    9.7   .     S
Er50     V98    9.7   .     S
Er50     V106    9.7   .     S
Er50     V66    9.7   .     S
Er50     V89    9.7   1_556     S
Er50     V81    9.7   1_556     S
Er50     V73    9.7   1_556     S
Er51     V99    9.7   .     S
Er51     V107    9.7   .     S
Er51     V67    9.7   .     S
Er51     V92    9.7   .     S
Er51     V84    9.7   .     S
Er51     V76    9.7   .     S
Er52     V100    9.7   .     S
Er52     V108    9.7   .     S
Er52     V68    9.7   .     S
Er52     V91    9.7   1_556     S
Er52     V83    9.7   1_556     S
Er52     V75    9.7   1_556     S
Er53     V101    9.7   .     S
Er53     V109    9.7   .     S
Er53     V69    9.7   .     S
Er53     V94    9.7   .     S
Er53     V86    9.7   .     S
Er53     V78    9.7   .     S
Er54     V102    9.7   .     S
Er54     V110    9.7   .     S
Er54     V70    9.7   .     S
Er54     V93    9.7   1_556     S
Er54     V85    9.7   1_556     S
Er54     V77    9.7   1_556     S
Er55     V103    9.7   .     S
Er55     V111    9.7   .     S
Er55     V71    9.7   .     S
Er55     V96    9.7   .     S
Er55     V88    9.7   .     S
Er55     V80    9.7   .     S
Er56     V104    9.7   .     S
Er56     V112    9.7   .     S
Er56     V72    9.7   .     S
Er56     V95    9.7   1_556     S
Er56     V87    9.7   1_556     S
Er56     V79    9.7   1_556     S
Er57     V89    9.7   .     S
Er57     V105    9.7   .     S
Er57     V97    9.7   .     S
Er57     V65    9.7   .     S
Er57     V73    9.7   .     S
Er57     V81    9.7   .     S
Er58     V90    9.7   .     S
Er58     V106    9.7   .     S
Er58     V98    9.7   .     S
Er58     V66    9.7   .     S
Er58     V74    9.7   .     S
Er58     V82    9.7   .     S
Er59     V91    9.7   .     S
Er59     V107    9.7   .     S
Er59     V99    9.7   .     S
Er59     V67    9.7   .     S
Er59     V75    9.7   .     S
Er59     V83    9.7   .     S
Er60     V92    9.7   .     S
Er60     V108    9.7   .     S
Er60     V100    9.7   .     S
Er60     V68    9.7   .     S
Er60     V76    9.7   .     S
Er60     V84    9.7   .     S
Er61     V93    9.7   .     S
Er61     V109    9.7   .     S
Er61     V101    9.7   .     S
Er61     V69    9.7   .     S
Er61     V77    9.7   .     S
Er61     V85    9.7   .     S
Er62     V94    9.7   .     S
Er62     V110    9.7   .     S
Er62     V102    9.7   .     S
Er62     V70    9.7   .     S
Er62     V78    9.7   .     S
Er62     V86    9.7   .     S
Er63     V95    9.7   .     S
Er63     V111    9.7   .     S
Er63     V103    9.7   .     S
Er63     V71    9.7   .     S
Er63     V79    9.7   .     S
Er63     V87    9.7   .     S
Er64     V96    9.7   .     S
Er64     V112    9.7   .     S
Er64     V104    9.7   .     S
Er64     V72    9.7   .     S
Er64     V80    9.7   .     S
Er64     V88    9.7   .     S
V65     V109    11.2   1_455     S
V65     V99    11.2   1_545     S
V65     V97    11.2   .     S
V65     V105    11.2   .     S
V65     Er45    9.7   1_455     S
V65     Er35    9.7   1_545     S
V65     Er7    9.7   1_445     S
V65     Er29    9.7   1_455     S
V65     Er23    9.7   1_445     S
V65     Er11    9.7   1_545     S
V66     V110    11.2   1_455     S
V66     V100    11.2   1_545     S
V66     V98    11.2   .     S
V66     V106    11.2   .     S
V66     Er46    9.7   1_455     S
V66     Er36    9.7   1_545     S
V66     Er8    9.7   1_445     S
V66     Er30    9.7   1_455     S
V66     Er24    9.7   1_445     S
V66     Er12    9.7   1_545     S
V67     V111    11.2   1_455     S
V67     V97    11.2   .     S
V67     V99    11.2   .     S
V67     V107    11.2   .     S
V67     Er47    9.7   1_455     S
V67     Er5    9.7   1_455     S
V67     Er31    9.7   1_455     S
V67     Er21    9.7   1_455     S
V68     V112    11.2   1_455     S
V68     V98    11.2   .     S
V68     V100    11.2   .     S
V68     V108    11.2   .     S
V68     Er48    9.7   1_455     S
V68     Er6    9.7   1_455     S
V68     Er32    9.7   1_455     S
V68     Er22    9.7   1_455     S
V69     V105    11.2   .     S
V69     V103    11.2   1_545     S
V69     V101    11.2   .     S
V69     V109    11.2   .     S
V69     Er39    9.7   1_545     S
V69     Er3    9.7   1_545     S
V69     Er19    9.7   1_545     S
V69     Er15    9.7   1_545     S
V70     V106    11.2   .     S
V70     V104    11.2   1_545     S
V70     V102    11.2   .     S
V70     V110    11.2   .     S
V70     Er40    9.7   1_545     S
V70     Er4    9.7   1_545     S
V70     Er20    9.7   1_545     S
V70     Er16    9.7   1_545     S
V71     V107    11.2   .     S
V71     V101    11.2   .     S
V71     V103    11.2   .     S
V71     V111    11.2   .     S
V72     V108    11.2   .     S
V72     V102    11.2   .     S
V72     V104    11.2   .     S
V72     V112    11.2   .     S
V73     V91    11.2   1_545     S
V73     V106    11.2   1_554     S
V73     V105    11.2   .     S
V73     V89    11.2   .     S
V73     Er19    9.7   1_545     S
V73     Er42    9.7   1_554     S
V73     Er4    9.7   1_544     S
V73     Er36    9.7   1_544     S
V73     Er50    9.7   1_554     S
V73     Er11    9.7   1_545     S
V74     V92    11.2   1_545     S
V74     V105    11.2   .     S
V74     V106    11.2   .     S
V74     V90    11.2   .     S
V74     Er20    9.7   1_545     S
V74     Er3    9.7   1_545     S
V74     Er35    9.7   1_545     S
V74     Er12    9.7   1_545     S
V75     V89    11.2   .     S
V75     V108    11.2   1_554     S
V75     V107    11.2   .     S
V75     V91    11.2   .     S
V75     Er44    9.7   1_554     S
V75     Er2    9.7   1_554     S
V75     Er34    9.7   1_554     S
V75     Er52    9.7   1_554     S
V76     V90    11.2   .     S
V76     V107    11.2   .     S
V76     V108    11.2   .     S
V76     V92    11.2   .     S
V77     V95    11.2   1_545     S
V77     V110    11.2   1_554     S
V77     V109    11.2   .     S
V77     V93    11.2   .     S
V77     Er23    9.7   1_545     S
V77     Er46    9.7   1_554     S
V77     Er8    9.7   1_544     S
V77     Er40    9.7   1_544     S
V77     Er54    9.7   1_554     S
V77     Er15    9.7   1_545     S
V78     V96    11.2   1_545     S
V78     V109    11.2   .     S
V78     V110    11.2   .     S
V78     V94    11.2   .     S
V78     Er24    9.7   1_545     S
V78     Er7    9.7   1_545     S
V78     Er39    9.7   1_545     S
V78     Er16    9.7   1_545     S
V79     V93    11.2   .     S
V79     V112    11.2   1_554     S
V79     V111    11.2   .     S
V79     V95    11.2   .     S
V79     Er48    9.7   1_554     S
V79     Er6    9.7   1_554     S
V79     Er38    9.7   1_554     S
V79     Er56    9.7   1_554     S
V80     V94    11.2   .     S
V80     V111    11.2   .     S
V80     V112    11.2   .     S
V80     V96    11.2   .     S
V81     V93    11.2   1_455     S
V81     V98    11.2   1_554     S
V81     V97    11.2   .     S
V81     V89    11.2   .     S
V81     Er21    9.7   1_455     S
V81     Er34    9.7   1_554     S
V81     Er6    9.7   1_454     S
V81     Er29    9.7   1_455     S
V81     Er50    9.7   1_554     S
V81     Er46    9.7   1_454     S
V82     V94    11.2   1_455     S
V82     V97    11.2   .     S
V82     V98    11.2   .     S
V82     V90    11.2   .     S
V82     Er22    9.7   1_455     S
V82     Er5    9.7   1_455     S
V82     Er30    9.7   1_455     S
V82     Er45    9.7   1_455     S
V83     V95    11.2   1_455     S
V83     V100    11.2   1_554     S
V83     V99    11.2   .     S
V83     V91    11.2   .     S
V83     Er23    9.7   1_455     S
V83     Er36    9.7   1_554     S
V83     Er8    9.7   1_454     S
V83     Er31    9.7   1_455     S
V83     Er52    9.7   1_554     S
V83     Er48    9.7   1_454     S
V84     V96    11.2   1_455     S
V84     V99    11.2   .     S
V84     V100    11.2   .     S
V84     V92    11.2   .     S
V84     Er24    9.7   1_455     S
V84     Er7    9.7   1_455     S
V84     Er32    9.7   1_455     S
V84     Er47    9.7   1_455     S
V85     V89    11.2   .     S
V85     V102    11.2   1_554     S
V85     V101    11.2   .     S
V85     V93    11.2   .     S
V85     Er38    9.7   1_554     S
V85     Er2    9.7   1_554     S
V85     Er54    9.7   1_554     S
V85     Er42    9.7   1_554     S
V86     V90    11.2   .     S
V86     V101    11.2   .     S
V86     V102    11.2   .     S
V86     V94    11.2   .     S
V87     V91    11.2   .     S
V87     V104    11.2   1_554     S
V87     V103    11.2   .     S
V87     V95    11.2   .     S
V87     Er40    9.7   1_554     S
V87     Er4    9.7   1_554     S
V87     Er56    9.7   1_554     S
V87     Er44    9.7   1_554     S
V88     V92    11.2   .     S
V88     V103    11.2   .     S
V88     V104    11.2   .     S
V88     V96    11.2   .     S
V89     Er2    9.7   1_554     S
V89     Er42    9.7   1_554     S
V89     Er34    9.7   1_554     S
V89     Er50    9.7   1_554     S
V91     V73    11.2   1_565     S
V91     Er4    9.7   1_554     S
V91     Er44    9.7   1_554     S
V91     Er36    9.7   1_554     S
V91     Er52    9.7   1_554     S
V92     V74    11.2   1_565     S
V93     V81    11.2   1_655     S
V93     Er6    9.7   1_554     S
V93     Er46    9.7   1_554     S
V93     Er38    9.7   1_554     S
V93     Er54    9.7   1_554     S
V94     V82    11.2   1_655     S
V95     V83    11.2   1_655     S
V95     V77    11.2   1_565     S
V95     Er8    9.7   1_554     S
V95     Er48    9.7   1_554     S
V95     Er40    9.7   1_554     S
V95     Er56    9.7   1_554     S
V96     V84    11.2   1_655     S
V96     V78    11.2   1_565     S
V97     Er5    9.7   1_455     S
V97     Er21    9.7   1_455     S
V97     Er45    9.7   1_455     S
V97     Er29    9.7   1_455     S
V98     V81    11.2   1_556     S
V98     Er6    9.7   1_455     S
V98     Er22    9.7   1_455     S
V98     Er46    9.7   1_455     S
V98     Er30    9.7   1_455     S
V99     V65    11.2   1_565     S
V99     Er7    9.7   1_455     S
V99     Er23    9.7   1_455     S
V99     Er47    9.7   1_455     S
V99     Er31    9.7   1_455     S
V100     V83    11.2   1_556     S
V100     V66    11.2   1_565     S
V100     Er8    9.7   1_455     S
V100     Er24    9.7   1_455     S
V100     Er48    9.7   1_455     S
V100     Er32    9.7   1_455     S
V102     V85    11.2   1_556     S
V103     V69    11.2   1_565     S
V104     V87    11.2   1_556     S
V104     V70    11.2   1_565     S
V105     Er3    9.7   1_545     S
V105     Er19    9.7   1_545     S
V105     Er35    9.7   1_545     S
V105     Er11    9.7   1_545     S
V106     V73    11.2   1_556     S
V106     Er4    9.7   1_545     S
V106     Er20    9.7   1_545     S
V106     Er36    9.7   1_545     S
V106     Er12    9.7   1_545     S
V108     V75    11.2   1_556     S
V109     V65    11.2   1_655     S
V109     Er7    9.7   1_545     S
V109     Er23    9.7   1_545     S
V109     Er39    9.7   1_545     S
V109     Er15    9.7   1_545     S
V110     V77    11.2   1_556     S
V110     V66    11.2   1_655     S
V110     Er8    9.7   1_545     S
V110     Er24    9.7   1_545     S
V110     Er40    9.7   1_545     S
V110     Er16    9.7   1_545     S
V111     V67    11.2   1_655     S
V112     V79    11.2   1_556     S
V112     V68    11.2   1_655     S
