data_xan
_audit_creation_date              2019-12-31
_audit_creation_method            'Pymatgen'
_symmetry_space_group_name_H-M    'P1'
_symmetry_Int_Tables_number       1
loop_
_symmetry_equiv_pos_as_xyz
  x,y,z
_cell_length_a                    30.0
_cell_length_b                    30.0
_cell_length_c                    54.1424
_cell_angle_alpha                 90.0
_cell_angle_beta                 90.0
_cell_angle_gamma                 90.0
loop_
_atom_site_label
_atom_site_type_symbol
_atom_site_fract_x
_atom_site_fract_y
_atom_site_fract_z
V1     V     0.0   0.0   0.6847
V2     V     0.0   0.3333   0.6847
V3     V     0.0   0.6667   0.6847
V4     V     0.3333   0.0   0.6847
V5     V     0.3333   0.3333   0.6847
V6     V     0.3333   0.6667   0.6847
V7     V     0.6667   0.0   0.6847
V8     V     0.6667   0.3333   0.6847
V9     V     0.6667   0.6667   0.6847
V10     V     0.1667   0.1667   0.8153
V11     V     0.1667   0.5   0.8153
V12     V     0.1667   0.8333   0.8153
V13     V     0.5   0.1667   0.8153
V14     V     0.5   0.5   0.8153
V15     V     0.5   0.8333   0.8153
V16     V     0.8333   0.1667   0.8153
V17     V     0.8333   0.5   0.8153
V18     V     0.8333   0.8333   0.8153
Er19     Er     0.0   0.0   0.5
Er20     Er     0.0   0.3333   0.5
Er21     Er     0.0   0.6667   0.5
Er22     Er     0.3333   0.0   0.5
Er23     Er     0.3333   0.3333   0.5
Er24     Er     0.3333   0.6667   0.5
Er25     Er     0.6667   0.0   0.5
Er26     Er     0.6667   0.3333   0.5
Er27     Er     0.6667   0.6667   0.5
Er28     Er     0.1667   0.1667   0.0
Er29     Er     0.1667   0.5   0.0
Er30     Er     0.1667   0.8333   0.0
Er31     Er     0.5   0.1667   0.0
Er32     Er     0.5   0.5   0.0
Er33     Er     0.5   0.8333   0.0
Er34     Er     0.8333   0.1667   0.0
Er35     Er     0.8333   0.5   0.0
Er36     Er     0.8333   0.8333   0.0
V37     V     0.1667   0.1667   0.1847
V38     V     0.1667   0.5   0.1847
V39     V     0.1667   0.8333   0.1847
V40     V     0.5   0.1667   0.1847
V41     V     0.5   0.5   0.1847
V42     V     0.5   0.8333   0.1847
V43     V     0.8333   0.1667   0.1847
V44     V     0.8333   0.5   0.1847
V45     V     0.8333   0.8333   0.1847
V46     V     0.0   0.0   0.3153
V47     V     0.0   0.3333   0.3153
V48     V     0.0   0.6667   0.3153
V49     V     0.3333   0.0   0.3153
V50     V     0.3333   0.3333   0.3153
V51     V     0.3333   0.6667   0.3153
V52     V     0.6667   0.0   0.3153
V53     V     0.6667   0.3333   0.3153
V54     V     0.6667   0.6667   0.3153
loop_
_geom_bond_atom_site_label_1
_geom_bond_atom_site_label_2
_geom_bond_distance
_geom_bond_site_symmetry_2
_ccdc_geom_bond_type
V1     V12    10.0   1_545     S
V1     V10    10.0   .     S
V1     V16    10.0   1_455     S
V1     V18    10.0   1_445     S
V1     Er19    10.0   .     S
V2     V10    10.0   .     S
V2     V11    10.0   .     S
V2     V17    10.0   1_455     S
V2     V16    10.0   1_455     S
V2     Er20    10.0   .     S
V3     V11    10.0   .     S
V3     V12    10.0   .     S
V3     V18    10.0   1_455     S
V3     V17    10.0   1_455     S
V3     Er21    10.0   .     S
V4     V15    10.0   1_545     S
V4     V13    10.0   .     S
V4     V10    10.0   .     S
V4     V12    10.0   1_545     S
V4     Er22    10.0   .     S
V5     V13    10.0   .     S
V5     V14    10.0   .     S
V5     V11    10.0   .     S
V5     V10    10.0   .     S
V5     Er23    10.0   .     S
V6     V14    10.0   .     S
V6     V15    10.0   .     S
V6     V12    10.0   .     S
V6     V11    10.0   .     S
V6     Er24    10.0   .     S
V7     V18    10.0   1_545     S
V7     V16    10.0   .     S
V7     V13    10.0   .     S
V7     V15    10.0   1_545     S
V7     Er25    10.0   .     S
V8     V16    10.0   .     S
V8     V17    10.0   .     S
V8     V14    10.0   .     S
V8     V13    10.0   .     S
V8     Er26    10.0   .     S
V9     V17    10.0   .     S
V9     V18    10.0   .     S
V9     V15    10.0   .     S
V9     V14    10.0   .     S
V9     Er27    10.0   .     S
V10     Er28    10.0   1_556     S
V11     Er29    10.0   1_556     S
V12     V1    10.0   1_565     S
V12     V4    10.0   1_565     S
V12     Er30    10.0   1_556     S
V13     Er31    10.0   1_556     S
V14     Er32    10.0   1_556     S
V15     V4    10.0   1_565     S
V15     V7    10.0   1_565     S
V15     Er33    10.0   1_556     S
V16     V1    10.0   1_655     S
V16     V2    10.0   1_655     S
V16     Er34    10.0   1_556     S
V17     V2    10.0   1_655     S
V17     V3    10.0   1_655     S
V17     Er35    10.0   1_556     S
V18     V7    10.0   1_565     S
V18     V3    10.0   1_655     S
V18     V1    10.0   1_665     S
V18     Er36    10.0   1_556     S
Er19     Er20    10.0   .     S
Er19     Er21    10.0   1_545     S
Er19     Er22    10.0   .     S
Er19     Er25    10.0   1_455     S
Er19     V46    10.0   .     S
Er20     Er21    10.0   .     S
Er20     Er23    10.0   .     S
Er20     Er26    10.0   1_455     S
Er20     V47    10.0   .     S
Er21     Er19    10.0   1_565     S
Er21     Er24    10.0   .     S
Er21     Er27    10.0   1_455     S
Er21     V48    10.0   .     S
Er22     Er23    10.0   .     S
Er22     Er24    10.0   1_545     S
Er22     Er25    10.0   .     S
Er22     V49    10.0   .     S
Er23     Er24    10.0   .     S
Er23     Er26    10.0   .     S
Er23     V50    10.0   .     S
Er24     Er22    10.0   1_565     S
Er24     Er27    10.0   .     S
Er24     V51    10.0   .     S
Er25     Er26    10.0   .     S
Er25     Er27    10.0   1_545     S
Er25     Er19    10.0   1_655     S
Er25     V52    10.0   .     S
Er26     Er27    10.0   .     S
Er26     Er20    10.0   1_655     S
Er26     V53    10.0   .     S
Er27     Er25    10.0   1_565     S
Er27     Er21    10.0   1_655     S
Er27     V54    10.0   .     S
Er28     V10    10.0   1_554     S
Er28     Er30    10.0   1_545     S
Er28     Er29    10.0   .     S
Er28     Er34    10.0   1_455     S
Er28     Er31    10.0   .     S
Er28     V37    10.0   .     S
Er29     V11    10.0   1_554     S
Er29     Er30    10.0   .     S
Er29     Er35    10.0   1_455     S
Er29     Er32    10.0   .     S
Er29     V38    10.0   .     S
Er30     V12    10.0   1_554     S
Er30     Er28    10.0   1_565     S
Er30     Er36    10.0   1_455     S
Er30     Er33    10.0   .     S
Er30     V39    10.0   .     S
Er31     V13    10.0   1_554     S
Er31     Er33    10.0   1_545     S
Er31     Er32    10.0   .     S
Er31     Er34    10.0   .     S
Er31     V40    10.0   .     S
Er32     V14    10.0   1_554     S
Er32     Er33    10.0   .     S
Er32     Er35    10.0   .     S
Er32     V41    10.0   .     S
Er33     V15    10.0   1_554     S
Er33     Er31    10.0   1_565     S
Er33     Er36    10.0   .     S
Er33     V42    10.0   .     S
Er34     V16    10.0   1_554     S
Er34     Er36    10.0   1_545     S
Er34     Er35    10.0   .     S
Er34     Er28    10.0   1_655     S
Er34     V43    10.0   .     S
Er35     V17    10.0   1_554     S
Er35     Er36    10.0   .     S
Er35     Er29    10.0   1_655     S
Er35     V44    10.0   .     S
Er36     V18    10.0   1_554     S
Er36     Er34    10.0   1_565     S
Er36     Er30    10.0   1_655     S
Er36     V45    10.0   .     S
V37     V46    10.0   .     S
V37     V49    10.0   .     S
V37     V50    10.0   .     S
V37     V47    10.0   .     S
V38     V47    10.0   .     S
V38     V50    10.0   .     S
V38     V51    10.0   .     S
V38     V48    10.0   .     S
V39     V48    10.0   .     S
V39     V51    10.0   .     S
V39     V49    10.0   1_565     S
V39     V46    10.0   1_565     S
V40     V49    10.0   .     S
V40     V52    10.0   .     S
V40     V53    10.0   .     S
V40     V50    10.0   .     S
V41     V50    10.0   .     S
V41     V53    10.0   .     S
V41     V54    10.0   .     S
V41     V51    10.0   .     S
V42     V51    10.0   .     S
V42     V54    10.0   .     S
V42     V52    10.0   1_565     S
V42     V49    10.0   1_565     S
V43     V52    10.0   .     S
V43     V46    10.0   1_655     S
V43     V47    10.0   1_655     S
V43     V53    10.0   .     S
V44     V53    10.0   .     S
V44     V47    10.0   1_655     S
V44     V48    10.0   1_655     S
V44     V54    10.0   .     S
V45     V54    10.0   .     S
V45     V48    10.0   1_655     S
V45     V46    10.0   1_665     S
V45     V52    10.0   1_565     S
V46     V43    10.0   1_455     S
V46     V45    10.0   1_445     S
V46     V39    10.0   1_545     S
V47     V44    10.0   1_455     S
V47     V43    10.0   1_455     S
V48     V45    10.0   1_455     S
V48     V44    10.0   1_455     S
V49     V39    10.0   1_545     S
V49     V42    10.0   1_545     S
V52     V42    10.0   1_545     S
V52     V45    10.0   1_545     S
