data_xat
_audit_creation_date              2019-12-31
_audit_creation_method            'Pymatgen'
_symmetry_space_group_name_H-M    'P1'
_symmetry_Int_Tables_number       1
loop_
_symmetry_equiv_pos_as_xyz
  x,y,z
_cell_length_a                    31.2718
_cell_length_b                    31.2718
_cell_length_c                    37.2076
_cell_angle_alpha                 90.0
_cell_angle_beta                 90.0
_cell_angle_gamma                 120.0
loop_
_atom_site_label
_atom_site_type_symbol
_atom_site_fract_x
_atom_site_fract_y
_atom_site_fract_z
V1     V     0.3333   0.1667   0.8844
V2     V     0.3333   0.6667   0.8844
V3     V     0.8333   0.1667   0.8844
V4     V     0.8333   0.6667   0.8844
V5     V     0.3333   0.1667   0.6156
V6     V     0.3333   0.6667   0.6156
V7     V     0.8333   0.1667   0.6156
V8     V     0.8333   0.6667   0.6156
V9     V     0.1667   0.3333   0.1156
V10     V     0.1667   0.8333   0.1156
V11     V     0.6667   0.3333   0.1156
V12     V     0.6667   0.8333   0.1156
V13     V     0.1667   0.3333   0.3844
V14     V     0.1667   0.8333   0.3844
V15     V     0.6667   0.3333   0.3844
V16     V     0.6667   0.8333   0.3844
Er17     Er     0.0   0.0   0.0
Er18     Er     0.0   0.5   0.0
Er19     Er     0.5   0.0   0.0
Er20     Er     0.5   0.5   0.0
Er21     Er     0.0   0.0   0.5
Er22     Er     0.0   0.5   0.5
Er23     Er     0.5   0.0   0.5
Er24     Er     0.5   0.5   0.5
loop_
_geom_bond_atom_site_label_1
_geom_bond_atom_site_label_2
_geom_bond_distance
_geom_bond_site_symmetry_2
_ccdc_geom_bond_type
V1     Er17    10.0   1_556     S
V1     Er20    10.0   1_556     S
V1     V5    10.0   .     S
V1     Er19    10.0   1_556     S
V2     Er18    10.0   1_556     S
V2     Er19    10.0   1_566     S
V2     V6    10.0   .     S
V2     Er20    10.0   1_556     S
V3     Er19    10.0   1_556     S
V3     Er18    10.0   1_656     S
V3     V7    10.0   .     S
V3     Er17    10.0   1_656     S
V4     Er20    10.0   1_556     S
V4     Er17    10.0   1_666     S
V4     V8    10.0   .     S
V4     Er18    10.0   1_656     S
V5     Er21    10.0   .     S
V5     Er24    10.0   .     S
V5     Er23    10.0   .     S
V6     Er22    10.0   .     S
V6     Er23    10.0   1_565     S
V6     Er24    10.0   .     S
V7     Er23    10.0   .     S
V7     Er22    10.0   1_655     S
V7     Er21    10.0   1_655     S
V8     Er24    10.0   .     S
V8     Er21    10.0   1_665     S
V8     Er22    10.0   1_655     S
V9     Er18    10.0   .     S
V9     Er20    10.0   .     S
V9     V13    10.0   .     S
V9     Er17    10.0   .     S
V10     Er17    10.0   1_565     S
V10     Er19    10.0   1_565     S
V10     V14    10.0   .     S
V10     Er18    10.0   .     S
V11     Er20    10.0   .     S
V11     Er18    10.0   1_655     S
V11     V15    10.0   .     S
V11     Er19    10.0   .     S
V12     Er19    10.0   1_565     S
V12     Er17    10.0   1_665     S
V12     V16    10.0   .     S
V12     Er20    10.0   .     S
V13     Er21    10.0   .     S
V13     Er22    10.0   .     S
V13     Er24    10.0   .     S
V14     Er22    10.0   .     S
V14     Er21    10.0   1_565     S
V14     Er23    10.0   1_565     S
V15     Er23    10.0   .     S
V15     Er24    10.0   .     S
V15     Er22    10.0   1_655     S
V16     Er24    10.0   .     S
V16     Er23    10.0   1_565     S
V16     Er21    10.0   1_665     S
Er17     V1    10.0   1_554     S
Er17     V4    10.0   1_444     S
Er17     V3    10.0   1_454     S
Er17     V10    10.0   1_545     S
Er17     V12    10.0   1_445     S
Er18     V2    10.0   1_554     S
Er18     V3    10.0   1_454     S
Er18     V4    10.0   1_454     S
Er18     V11    10.0   1_455     S
Er19     V3    10.0   1_554     S
Er19     V2    10.0   1_544     S
Er19     V1    10.0   1_554     S
Er19     V12    10.0   1_545     S
Er19     V10    10.0   1_545     S
Er20     V4    10.0   1_554     S
Er20     V1    10.0   1_554     S
Er20     V2    10.0   1_554     S
Er21     V8    10.0   1_445     S
Er21     V7    10.0   1_455     S
Er21     V14    10.0   1_545     S
Er21     V16    10.0   1_445     S
Er22     V7    10.0   1_455     S
Er22     V8    10.0   1_455     S
Er22     V15    10.0   1_455     S
Er23     V6    10.0   1_545     S
Er23     V16    10.0   1_545     S
Er23     V14    10.0   1_545     S
