data_xax
_audit_creation_date              2019-12-31
_audit_creation_method            'Pymatgen'
_symmetry_space_group_name_H-M    'P1'
_symmetry_Int_Tables_number       1
loop_
_symmetry_equiv_pos_as_xyz
  x,y,z
_cell_length_a                    25.0
_cell_length_b                    25.0
_cell_length_c                    40.0
_cell_angle_alpha                 90.0
_cell_angle_beta                 90.0
_cell_angle_gamma                 120.0
loop_
_atom_site_label
_atom_site_type_symbol
_atom_site_fract_x
_atom_site_fract_y
_atom_site_fract_z
Er1     Er     0.8   0.2   0.125
Er2     Er     0.8   0.2   0.625
Er3     Er     0.4   0.2   0.125
Er4     Er     0.4   0.2   0.625
V5     V     0.0   0.0   0.0
V6     V     0.0   0.0   0.5
Er7     Er     0.2   0.8   0.375
Er8     Er     0.2   0.8   0.875
Er9     Er     0.6   0.8   0.375
Er10     Er     0.6   0.8   0.875
Er11     Er     0.2   0.4   0.375
Er12     Er     0.2   0.4   0.875
V13     V     0.0   0.0   0.25
V14     V     0.0   0.0   0.75
Er15     Er     0.8   0.6   0.125
Er16     Er     0.8   0.6   0.625
loop_
_geom_bond_atom_site_label_1
_geom_bond_atom_site_label_2
_geom_bond_distance
_geom_bond_site_symmetry_2
_ccdc_geom_bond_type
Er1     Er15    10.0   .     S
Er1     Er3    10.0   .     S
Er1     V13    10.0   1_655     S
Er1     V5    10.0   1_655     S
Er2     Er16    10.0   .     S
Er2     Er4    10.0   .     S
Er2     V14    10.0   1_655     S
Er2     V6    10.0   1_655     S
Er3     Er15    10.0   .     S
Er3     V13    10.0   .     S
Er3     V5    10.0   .     S
Er4     Er16    10.0   .     S
Er4     V14    10.0   .     S
Er4     V6    10.0   .     S
V5     Er8    10.0   1_544     S
V5     Er12    10.0   1_554     S
V5     Er10    10.0   1_444     S
V5     Er1    10.0   1_455     S
V5     Er15    10.0   1_445     S
V5     V13    10.0   .     S
V5     V14    10.0   1_554     S
V6     Er7    10.0   1_545     S
V6     Er11    10.0   .     S
V6     Er9    10.0   1_445     S
V6     Er2    10.0   1_455     S
V6     Er16    10.0   1_445     S
V6     V14    10.0   .     S
V6     V13    10.0   .     S
Er7     V6    10.0   1_565     S
Er7     Er9    10.0   .     S
Er7     Er11    10.0   .     S
Er7     V13    10.0   1_565     S
Er8     V5    10.0   1_566     S
Er8     Er10    10.0   .     S
Er8     Er12    10.0   .     S
Er8     V14    10.0   1_565     S
Er9     Er11    10.0   .     S
Er9     V6    10.0   1_665     S
Er9     V13    10.0   1_665     S
Er10     Er12    10.0   .     S
Er10     V5    10.0   1_666     S
Er10     V14    10.0   1_665     S
Er11     V13    10.0   .     S
Er12     V5    10.0   1_556     S
Er12     V14    10.0   .     S
V13     Er7    10.0   1_545     S
V13     Er1    10.0   1_455     S
V13     Er15    10.0   1_445     S
V13     Er9    10.0   1_445     S
V14     Er8    10.0   1_545     S
V14     Er2    10.0   1_455     S
V14     Er16    10.0   1_445     S
V14     Er10    10.0   1_445     S
V14     V5    10.0   1_556     S
Er15     V13    10.0   1_665     S
Er15     V5    10.0   1_665     S
Er16     V14    10.0   1_665     S
Er16     V6    10.0   1_665     S
