data_xay
_audit_creation_date              2019-12-31
_audit_creation_method            'Pymatgen'
_symmetry_space_group_name_H-M    'P1'
_symmetry_Int_Tables_number       1
loop_
_symmetry_equiv_pos_as_xyz
  x,y,z
_cell_length_a                    28.516
_cell_length_b                    28.516
_cell_length_c                    28.516
_cell_angle_alpha                 90.0
_cell_angle_beta                 90.0
_cell_angle_gamma                 90.0
loop_
_atom_site_label
_atom_site_type_symbol
_atom_site_fract_x
_atom_site_fract_y
_atom_site_fract_z
V1     V     0.1281   0.1281   0.3719
V2     V     0.1281   0.1281   0.8719
V3     V     0.1281   0.6281   0.3719
V4     V     0.1281   0.6281   0.8719
V5     V     0.6281   0.1281   0.3719
V6     V     0.6281   0.1281   0.8719
V7     V     0.6281   0.6281   0.3719
V8     V     0.6281   0.6281   0.8719
V9     V     0.1281   0.3719   0.1281
V10     V     0.1281   0.3719   0.6281
V11     V     0.1281   0.8719   0.1281
V12     V     0.1281   0.8719   0.6281
V13     V     0.6281   0.3719   0.1281
V14     V     0.6281   0.3719   0.6281
V15     V     0.6281   0.8719   0.1281
V16     V     0.6281   0.8719   0.6281
V17     V     0.3719   0.3719   0.3719
V18     V     0.3719   0.3719   0.8719
V19     V     0.3719   0.8719   0.3719
V20     V     0.3719   0.8719   0.8719
V21     V     0.8719   0.3719   0.3719
V22     V     0.8719   0.3719   0.8719
V23     V     0.8719   0.8719   0.3719
V24     V     0.8719   0.8719   0.8719
V25     V     0.3719   0.1281   0.1281
V26     V     0.3719   0.1281   0.6281
V27     V     0.3719   0.6281   0.1281
V28     V     0.3719   0.6281   0.6281
V29     V     0.8719   0.1281   0.1281
V30     V     0.8719   0.1281   0.6281
V31     V     0.8719   0.6281   0.1281
V32     V     0.8719   0.6281   0.6281
loop_
_geom_bond_atom_site_label_1
_geom_bond_atom_site_label_2
_geom_bond_distance
_geom_bond_site_symmetry_2
_ccdc_geom_bond_type
V1     V26    10.085   .     S
V1     V10    10.085   .     S
V1     V29    10.085   1_455     S
V1     V21    10.085   1_455     S
V1     V11    10.085   1_545     S
V1     V19    10.085   1_545     S
V1     V9    9.83   .     S
V1     V25    9.83   .     S
V1     V17    9.83   .     S
V2     V25    10.085   1_556     S
V2     V9    10.085   1_556     S
V2     V30    10.085   1_455     S
V2     V22    10.085   1_455     S
V2     V12    10.085   1_545     S
V2     V20    10.085   1_545     S
V2     V10    9.83   .     S
V2     V26    9.83   .     S
V2     V18    9.83   .     S
V3     V28    10.085   .     S
V3     V12    10.085   .     S
V3     V31    10.085   1_455     S
V3     V23    10.085   1_455     S
V3     V9    10.085   .     S
V3     V17    10.085   .     S
V3     V11    9.83   .     S
V3     V27    9.83   .     S
V3     V19    9.83   .     S
V4     V27    10.085   1_556     S
V4     V11    10.085   1_556     S
V4     V32    10.085   1_455     S
V4     V24    10.085   1_455     S
V4     V10    10.085   .     S
V4     V18    10.085   .     S
V4     V12    9.83   .     S
V4     V28    9.83   .     S
V4     V20    9.83   .     S
V5     V30    10.085   .     S
V5     V14    10.085   .     S
V5     V25    10.085   .     S
V5     V17    10.085   .     S
V5     V15    10.085   1_545     S
V5     V23    10.085   1_545     S
V5     V13    9.83   .     S
V5     V29    9.83   .     S
V5     V21    9.83   .     S
V6     V29    10.085   1_556     S
V6     V13    10.085   1_556     S
V6     V26    10.085   .     S
V6     V18    10.085   .     S
V6     V16    10.085   1_545     S
V6     V24    10.085   1_545     S
V6     V14    9.83   .     S
V6     V30    9.83   .     S
V6     V22    9.83   .     S
V7     V32    10.085   .     S
V7     V16    10.085   .     S
V7     V27    10.085   .     S
V7     V19    10.085   .     S
V7     V13    10.085   .     S
V7     V21    10.085   .     S
V7     V15    9.83   .     S
V7     V31    9.83   .     S
V7     V23    9.83   .     S
V8     V31    10.085   1_556     S
V8     V15    10.085   1_556     S
V8     V28    10.085   .     S
V8     V20    10.085   .     S
V8     V14    10.085   .     S
V8     V22    10.085   .     S
V8     V16    9.83   .     S
V8     V32    9.83   .     S
V8     V24    9.83   .     S
V9     V2    10.085   1_554     S
V9     V18    10.085   1_554     S
V9     V21    10.085   1_455     S
V9     V29    10.085   1_455     S
V9     V27    10.085   .     S
V9     V17    9.83   .     S
V9     V25    9.83   .     S
V10     V17    10.085   .     S
V10     V22    10.085   1_455     S
V10     V30    10.085   1_455     S
V10     V28    10.085   .     S
V10     V18    9.83   .     S
V10     V26    9.83   .     S
V11     V4    10.085   1_554     S
V11     V20    10.085   1_554     S
V11     V23    10.085   1_455     S
V11     V31    10.085   1_455     S
V11     V1    10.085   1_565     S
V11     V25    10.085   1_565     S
V11     V19    9.83   .     S
V11     V27    9.83   .     S
V12     V19    10.085   .     S
V12     V24    10.085   1_455     S
V12     V32    10.085   1_455     S
V12     V2    10.085   1_565     S
V12     V26    10.085   1_565     S
V12     V20    9.83   .     S
V12     V28    9.83   .     S
V13     V6    10.085   1_554     S
V13     V22    10.085   1_554     S
V13     V17    10.085   .     S
V13     V25    10.085   .     S
V13     V31    10.085   .     S
V13     V21    9.83   .     S
V13     V29    9.83   .     S
V14     V21    10.085   .     S
V14     V18    10.085   .     S
V14     V26    10.085   .     S
V14     V32    10.085   .     S
V14     V22    9.83   .     S
V14     V30    9.83   .     S
V15     V8    10.085   1_554     S
V15     V24    10.085   1_554     S
V15     V19    10.085   .     S
V15     V27    10.085   .     S
V15     V5    10.085   1_565     S
V15     V29    10.085   1_565     S
V15     V23    9.83   .     S
V15     V31    9.83   .     S
V16     V23    10.085   .     S
V16     V20    10.085   .     S
V16     V28    10.085   .     S
V16     V6    10.085   1_565     S
V16     V30    10.085   1_565     S
V16     V24    9.83   .     S
V16     V32    9.83   .     S
V17     V26    10.085   .     S
V17     V27    10.085   .     S
V17     V25    9.83   .     S
V18     V9    10.085   1_556     S
V18     V25    10.085   1_556     S
V18     V28    10.085   .     S
V18     V26    9.83   .     S
V19     V28    10.085   .     S
V19     V25    10.085   1_565     S
V19     V1    10.085   1_565     S
V19     V27    9.83   .     S
V20     V11    10.085   1_556     S
V20     V27    10.085   1_556     S
V20     V26    10.085   1_565     S
V20     V2    10.085   1_565     S
V20     V28    9.83   .     S
V21     V30    10.085   .     S
V21     V9    10.085   1_655     S
V21     V1    10.085   1_655     S
V21     V31    10.085   .     S
V21     V29    9.83   .     S
V22     V13    10.085   1_556     S
V22     V29    10.085   1_556     S
V22     V10    10.085   1_655     S
V22     V2    10.085   1_655     S
V22     V32    10.085   .     S
V22     V30    9.83   .     S
V23     V32    10.085   .     S
V23     V11    10.085   1_655     S
V23     V3    10.085   1_655     S
V23     V29    10.085   1_565     S
V23     V5    10.085   1_565     S
V23     V31    9.83   .     S
V24     V15    10.085   1_556     S
V24     V31    10.085   1_556     S
V24     V12    10.085   1_655     S
V24     V4    10.085   1_655     S
V24     V30    10.085   1_565     S
V24     V6    10.085   1_565     S
V24     V32    9.83   .     S
V25     V2    10.085   1_554     S
V25     V18    10.085   1_554     S
V25     V11    10.085   1_545     S
V25     V19    10.085   1_545     S
V26     V12    10.085   1_545     S
V26     V20    10.085   1_545     S
V27     V4    10.085   1_554     S
V27     V20    10.085   1_554     S
V29     V6    10.085   1_554     S
V29     V22    10.085   1_554     S
V29     V9    10.085   1_655     S
V29     V1    10.085   1_655     S
V29     V15    10.085   1_545     S
V29     V23    10.085   1_545     S
V30     V10    10.085   1_655     S
V30     V2    10.085   1_655     S
V30     V16    10.085   1_545     S
V30     V24    10.085   1_545     S
V31     V8    10.085   1_554     S
V31     V24    10.085   1_554     S
V31     V11    10.085   1_655     S
V31     V3    10.085   1_655     S
V32     V12    10.085   1_655     S
V32     V4    10.085   1_655     S
