data_xbd
_audit_creation_date              2019-12-31
_audit_creation_method            'Pymatgen'
_symmetry_space_group_name_H-M    'P1'
_symmetry_Int_Tables_number       1
loop_
_symmetry_equiv_pos_as_xyz
  x,y,z
_cell_length_a                    27.3205
_cell_length_b                    27.3205
_cell_length_c                    40.0002
_cell_angle_alpha                 90.0
_cell_angle_beta                 90.0
_cell_angle_gamma                 120.0
loop_
_atom_site_label
_atom_site_type_symbol
_atom_site_fract_x
_atom_site_fract_y
_atom_site_fract_z
Er1     Er     0.2113   0.7887   0.125
Er2     Er     0.2113   0.7887   0.625
Er3     Er     0.5774   0.7887   0.125
Er4     Er     0.5774   0.7887   0.625
Er5     Er     0.2113   0.4226   0.125
Er6     Er     0.2113   0.4226   0.625
Er7     Er     0.7887   0.2113   0.375
Er8     Er     0.7887   0.2113   0.875
Er9     Er     0.7887   0.5774   0.375
Er10     Er     0.7887   0.5774   0.875
Er11     Er     0.4226   0.2113   0.375
Er12     Er     0.4226   0.2113   0.875
V13     V     0.0   0.0   0.125
V14     V     0.0   0.0   0.625
V15     V     0.0   0.0   0.375
V16     V     0.0   0.0   0.875
loop_
_geom_bond_atom_site_label_1
_geom_bond_atom_site_label_2
_geom_bond_distance
_geom_bond_site_symmetry_2
_ccdc_geom_bond_type
Er1     Er3    10.0   .     S
Er1     Er5    10.0   .     S
Er1     V13    10.0   1_565     S
Er2     Er4    10.0   .     S
Er2     Er6    10.0   .     S
Er2     V14    10.0   1_565     S
Er3     Er5    10.0   .     S
Er3     V13    10.0   1_665     S
Er4     Er6    10.0   .     S
Er4     V14    10.0   1_665     S
Er5     V13    10.0   .     S
Er6     V14    10.0   .     S
Er7     Er9    10.0   .     S
Er7     Er11    10.0   .     S
Er7     V15    10.0   1_655     S
Er8     Er10    10.0   .     S
Er8     Er12    10.0   .     S
Er8     V16    10.0   1_655     S
Er9     Er11    10.0   .     S
Er9     V15    10.0   1_665     S
Er10     Er12    10.0   .     S
Er10     V16    10.0   1_665     S
Er11     V15    10.0   .     S
Er12     V16    10.0   .     S
V13     Er1    10.0   1_545     S
V13     Er3    10.0   1_445     S
V13     V15    10.0   .     S
V13     V16    10.0   1_554     S
V14     Er2    10.0   1_545     S
V14     Er4    10.0   1_445     S
V14     V16    10.0   .     S
V14     V15    10.0   .     S
V15     Er7    10.0   1_455     S
V15     Er9    10.0   1_445     S
V16     Er8    10.0   1_455     S
V16     Er10    10.0   1_445     S
V16     V13    10.0   1_556     S
