data_xbj
_audit_creation_date              2019-12-31
_audit_creation_method            'Pymatgen'
_symmetry_space_group_name_H-M    'P1'
_symmetry_Int_Tables_number       1
loop_
_symmetry_equiv_pos_as_xyz
  x,y,z
_cell_length_a                    30.0
_cell_length_b                    30.0
_cell_length_c                    74.641
_cell_angle_alpha                 90.0
_cell_angle_beta                 90.0
_cell_angle_gamma                 90.0
loop_
_atom_site_label
_atom_site_type_symbol
_atom_site_fract_x
_atom_site_fract_y
_atom_site_fract_z
V1     V     0.1667   0.0833   0.692
V2     V     0.1667   0.4167   0.692
V3     V     0.1667   0.75   0.692
V4     V     0.5   0.0833   0.692
V5     V     0.5   0.4167   0.692
V6     V     0.5   0.75   0.692
V7     V     0.8333   0.0833   0.692
V8     V     0.8333   0.4167   0.692
V9     V     0.8333   0.75   0.692
V10     V     0.0   0.0833   0.808
V11     V     0.0   0.4167   0.808
V12     V     0.0   0.75   0.808
V13     V     0.3333   0.0833   0.808
V14     V     0.3333   0.4167   0.808
V15     V     0.3333   0.75   0.808
V16     V     0.6667   0.0833   0.808
V17     V     0.6667   0.4167   0.808
V18     V     0.6667   0.75   0.808
V19     V     0.1667   0.25   0.442
V20     V     0.1667   0.5833   0.442
V21     V     0.1667   0.9167   0.442
V22     V     0.5   0.25   0.442
V23     V     0.5   0.5833   0.442
V24     V     0.5   0.9167   0.442
V25     V     0.8333   0.25   0.442
V26     V     0.8333   0.5833   0.442
V27     V     0.8333   0.9167   0.442
V28     V     0.1667   0.0833   0.558
V29     V     0.1667   0.4167   0.558
V30     V     0.1667   0.75   0.558
V31     V     0.5   0.0833   0.558
V32     V     0.5   0.4167   0.558
V33     V     0.5   0.75   0.558
V34     V     0.8333   0.0833   0.558
V35     V     0.8333   0.4167   0.558
V36     V     0.8333   0.75   0.558
V37     V     0.0   0.25   0.192
V38     V     0.0   0.5833   0.192
V39     V     0.0   0.9167   0.192
V40     V     0.3333   0.25   0.192
V41     V     0.3333   0.5833   0.192
V42     V     0.3333   0.9167   0.192
V43     V     0.6667   0.25   0.192
V44     V     0.6667   0.5833   0.192
V45     V     0.6667   0.9167   0.192
V46     V     0.1667   0.25   0.308
V47     V     0.1667   0.5833   0.308
V48     V     0.1667   0.9167   0.308
V49     V     0.5   0.25   0.308
V50     V     0.5   0.5833   0.308
V51     V     0.5   0.9167   0.308
V52     V     0.8333   0.25   0.308
V53     V     0.8333   0.5833   0.308
V54     V     0.8333   0.9167   0.308
V55     V     0.0   0.25   0.058
V56     V     0.0   0.5833   0.058
V57     V     0.0   0.9167   0.058
V58     V     0.3333   0.25   0.058
V59     V     0.3333   0.5833   0.058
V60     V     0.3333   0.9167   0.058
V61     V     0.6667   0.25   0.058
V62     V     0.6667   0.5833   0.058
V63     V     0.6667   0.9167   0.058
V64     V     0.0   0.0833   0.942
V65     V     0.0   0.4167   0.942
V66     V     0.0   0.75   0.942
V67     V     0.3333   0.0833   0.942
V68     V     0.3333   0.4167   0.942
V69     V     0.3333   0.75   0.942
V70     V     0.6667   0.0833   0.942
V71     V     0.6667   0.4167   0.942
V72     V     0.6667   0.75   0.942
loop_
_geom_bond_atom_site_label_1
_geom_bond_atom_site_label_2
_geom_bond_distance
_geom_bond_site_symmetry_2
_ccdc_geom_bond_type
V1     V13    10.0   .     S
V1     V10    10.0   .     S
V1     V2    10.0   .     S
V1     V3    10.0   1_545     S
V1     V28    10.0   .     S
V2     V14    10.0   .     S
V2     V11    10.0   .     S
V2     V3    10.0   .     S
V2     V29    10.0   .     S
V3     V15    10.0   .     S
V3     V12    10.0   .     S
V3     V1    10.0   1_565     S
V3     V30    10.0   .     S
V4     V16    10.0   .     S
V4     V13    10.0   .     S
V4     V5    10.0   .     S
V4     V6    10.0   1_545     S
V4     V31    10.0   .     S
V5     V17    10.0   .     S
V5     V14    10.0   .     S
V5     V6    10.0   .     S
V5     V32    10.0   .     S
V6     V18    10.0   .     S
V6     V15    10.0   .     S
V6     V4    10.0   1_565     S
V6     V33    10.0   .     S
V7     V10    10.0   1_655     S
V7     V16    10.0   .     S
V7     V8    10.0   .     S
V7     V9    10.0   1_545     S
V7     V34    10.0   .     S
V8     V11    10.0   1_655     S
V8     V17    10.0   .     S
V8     V9    10.0   .     S
V8     V35    10.0   .     S
V9     V12    10.0   1_655     S
V9     V18    10.0   .     S
V9     V7    10.0   1_565     S
V9     V36    10.0   .     S
V10     V7    10.0   1_455     S
V10     V11    10.0   .     S
V10     V12    10.0   1_545     S
V10     V64    10.0   .     S
V11     V8    10.0   1_455     S
V11     V12    10.0   .     S
V11     V65    10.0   .     S
V12     V9    10.0   1_455     S
V12     V10    10.0   1_565     S
V12     V66    10.0   .     S
V13     V14    10.0   .     S
V13     V15    10.0   1_545     S
V13     V67    10.0   .     S
V14     V15    10.0   .     S
V14     V68    10.0   .     S
V15     V13    10.0   1_565     S
V15     V69    10.0   .     S
V16     V17    10.0   .     S
V16     V18    10.0   1_545     S
V16     V70    10.0   .     S
V17     V18    10.0   .     S
V17     V71    10.0   .     S
V18     V16    10.0   1_565     S
V18     V72    10.0   .     S
V19     V28    10.0   .     S
V19     V29    10.0   .     S
V19     V25    10.0   1_455     S
V19     V22    10.0   .     S
V19     V46    10.0   .     S
V20     V29    10.0   .     S
V20     V30    10.0   .     S
V20     V26    10.0   1_455     S
V20     V23    10.0   .     S
V20     V47    10.0   .     S
V21     V30    10.0   .     S
V21     V28    10.0   1_565     S
V21     V27    10.0   1_455     S
V21     V24    10.0   .     S
V21     V48    10.0   .     S
V22     V31    10.0   .     S
V22     V32    10.0   .     S
V22     V25    10.0   .     S
V22     V49    10.0   .     S
V23     V32    10.0   .     S
V23     V33    10.0   .     S
V23     V26    10.0   .     S
V23     V50    10.0   .     S
V24     V33    10.0   .     S
V24     V31    10.0   1_565     S
V24     V27    10.0   .     S
V24     V51    10.0   .     S
V25     V34    10.0   .     S
V25     V35    10.0   .     S
V25     V19    10.0   1_655     S
V25     V52    10.0   .     S
V26     V35    10.0   .     S
V26     V36    10.0   .     S
V26     V20    10.0   1_655     S
V26     V53    10.0   .     S
V27     V36    10.0   .     S
V27     V34    10.0   1_565     S
V27     V21    10.0   1_655     S
V27     V54    10.0   .     S
V28     V21    10.0   1_545     S
V28     V34    10.0   1_455     S
V28     V31    10.0   .     S
V29     V35    10.0   1_455     S
V29     V32    10.0   .     S
V30     V36    10.0   1_455     S
V30     V33    10.0   .     S
V31     V24    10.0   1_545     S
V31     V34    10.0   .     S
V32     V35    10.0   .     S
V33     V36    10.0   .     S
V34     V27    10.0   1_545     S
V34     V28    10.0   1_655     S
V35     V29    10.0   1_655     S
V36     V30    10.0   1_655     S
V37     V52    10.0   1_455     S
V37     V46    10.0   .     S
V37     V39    10.0   1_545     S
V37     V38    10.0   .     S
V37     V55    10.0   .     S
V38     V53    10.0   1_455     S
V38     V47    10.0   .     S
V38     V39    10.0   .     S
V38     V56    10.0   .     S
V39     V54    10.0   1_455     S
V39     V48    10.0   .     S
V39     V37    10.0   1_565     S
V39     V57    10.0   .     S
V40     V46    10.0   .     S
V40     V49    10.0   .     S
V40     V42    10.0   1_545     S
V40     V41    10.0   .     S
V40     V58    10.0   .     S
V41     V47    10.0   .     S
V41     V50    10.0   .     S
V41     V42    10.0   .     S
V41     V59    10.0   .     S
V42     V48    10.0   .     S
V42     V51    10.0   .     S
V42     V40    10.0   1_565     S
V42     V60    10.0   .     S
V43     V49    10.0   .     S
V43     V52    10.0   .     S
V43     V45    10.0   1_545     S
V43     V44    10.0   .     S
V43     V61    10.0   .     S
V44     V50    10.0   .     S
V44     V53    10.0   .     S
V44     V45    10.0   .     S
V44     V62    10.0   .     S
V45     V51    10.0   .     S
V45     V54    10.0   .     S
V45     V43    10.0   1_565     S
V45     V63    10.0   .     S
V46     V48    10.0   1_545     S
V46     V47    10.0   .     S
V47     V48    10.0   .     S
V48     V46    10.0   1_565     S
V49     V51    10.0   1_545     S
V49     V50    10.0   .     S
V50     V51    10.0   .     S
V51     V49    10.0   1_565     S
V52     V37    10.0   1_655     S
V52     V54    10.0   1_545     S
V52     V53    10.0   .     S
V53     V38    10.0   1_655     S
V53     V54    10.0   .     S
V54     V39    10.0   1_655     S
V54     V52    10.0   1_565     S
V55     V64    10.0   1_554     S
V55     V65    10.0   1_554     S
V55     V58    10.0   .     S
V55     V61    10.0   1_455     S
V56     V65    10.0   1_554     S
V56     V66    10.0   1_554     S
V56     V59    10.0   .     S
V56     V62    10.0   1_455     S
V57     V66    10.0   1_554     S
V57     V64    10.0   1_564     S
V57     V60    10.0   .     S
V57     V63    10.0   1_455     S
V58     V67    10.0   1_554     S
V58     V68    10.0   1_554     S
V58     V61    10.0   .     S
V59     V68    10.0   1_554     S
V59     V69    10.0   1_554     S
V59     V62    10.0   .     S
V60     V69    10.0   1_554     S
V60     V67    10.0   1_564     S
V60     V63    10.0   .     S
V61     V70    10.0   1_554     S
V61     V71    10.0   1_554     S
V61     V55    10.0   1_655     S
V62     V71    10.0   1_554     S
V62     V72    10.0   1_554     S
V62     V56    10.0   1_655     S
V63     V72    10.0   1_554     S
V63     V70    10.0   1_564     S
V63     V57    10.0   1_655     S
V64     V55    10.0   1_556     S
V64     V57    10.0   1_546     S
V64     V67    10.0   .     S
V64     V70    10.0   1_455     S
V65     V56    10.0   1_556     S
V65     V55    10.0   1_556     S
V65     V68    10.0   .     S
V65     V71    10.0   1_455     S
V66     V57    10.0   1_556     S
V66     V56    10.0   1_556     S
V66     V69    10.0   .     S
V66     V72    10.0   1_455     S
V67     V58    10.0   1_556     S
V67     V60    10.0   1_546     S
V67     V70    10.0   .     S
V68     V59    10.0   1_556     S
V68     V58    10.0   1_556     S
V68     V71    10.0   .     S
V69     V60    10.0   1_556     S
V69     V59    10.0   1_556     S
V69     V72    10.0   .     S
V70     V61    10.0   1_556     S
V70     V63    10.0   1_546     S
V70     V64    10.0   1_655     S
V71     V62    10.0   1_556     S
V71     V61    10.0   1_556     S
V71     V65    10.0   1_655     S
V72     V63    10.0   1_556     S
V72     V62    10.0   1_556     S
V72     V66    10.0   1_655     S
