data_xbo
_audit_creation_date              2019-12-31
_audit_creation_method            'Pymatgen'
_symmetry_space_group_name_H-M    'P1'
_symmetry_Int_Tables_number       1
loop_
_symmetry_equiv_pos_as_xyz
  x,y,z
_cell_length_a                    31.3444
_cell_length_b                    31.3444
_cell_length_c                    31.3444
_cell_angle_alpha                 90.0
_cell_angle_beta                 90.0
_cell_angle_gamma                 90.0
loop_
_atom_site_label
_atom_site_type_symbol
_atom_site_fract_x
_atom_site_fract_y
_atom_site_fract_z
V1     V     0.0   0.25   0.0
V2     V     0.0   0.25   0.5
V3     V     0.0   0.75   0.0
V4     V     0.0   0.75   0.5
V5     V     0.5   0.25   0.0
V6     V     0.5   0.25   0.5
V7     V     0.5   0.75   0.0
V8     V     0.5   0.75   0.5
V9     V     0.25   0.0   0.0
V10     V     0.25   0.0   0.5
V11     V     0.25   0.5   0.0
V12     V     0.25   0.5   0.5
V13     V     0.75   0.0   0.0
V14     V     0.75   0.0   0.5
V15     V     0.75   0.5   0.0
V16     V     0.75   0.5   0.5
V17     V     0.0   0.0   0.25
V18     V     0.0   0.0   0.75
V19     V     0.0   0.5   0.25
V20     V     0.0   0.5   0.75
V21     V     0.5   0.0   0.25
V22     V     0.5   0.0   0.75
V23     V     0.5   0.5   0.25
V24     V     0.5   0.5   0.75
Ti25     Ti     0.0   0.0   0.0
Ti26     Ti     0.0   0.0   0.5
Ti27     Ti     0.0   0.5   0.0
Ti28     Ti     0.0   0.5   0.5
Ti29     Ti     0.5   0.0   0.0
Ti30     Ti     0.5   0.0   0.5
Ti31     Ti     0.5   0.5   0.0
Ti32     Ti     0.5   0.5   0.5
Er33     Er     0.25   0.25   0.25
Er34     Er     0.25   0.25   0.75
Er35     Er     0.25   0.75   0.25
Er36     Er     0.25   0.75   0.75
Er37     Er     0.75   0.25   0.25
Er38     Er     0.75   0.25   0.75
Er39     Er     0.75   0.75   0.25
Er40     Er     0.75   0.75   0.75
loop_
_geom_bond_atom_site_label_1
_geom_bond_atom_site_label_2
_geom_bond_distance
_geom_bond_site_symmetry_2
_ccdc_geom_bond_type
V1     Er34    11.082   1_554     S
V1     Er37    11.082   1_455     S
V1     Er33    11.082   .     S
V1     Er38    11.082   1_454     S
V1     Ti27    7.836   .     S
V1     Ti25    7.836   .     S
V2     Er33    11.082   .     S
V2     Er38    11.082   1_455     S
V2     Er34    11.082   .     S
V2     Er37    11.082   1_455     S
V2     Ti28    7.836   .     S
V2     Ti26    7.836   .     S
V3     Er36    11.082   1_554     S
V3     Er39    11.082   1_455     S
V3     Er35    11.082   .     S
V3     Er40    11.082   1_454     S
V3     Ti25    7.836   1_565     S
V3     Ti27    7.836   .     S
V4     Er35    11.082   .     S
V4     Er40    11.082   1_455     S
V4     Er36    11.082   .     S
V4     Er39    11.082   1_455     S
V4     Ti26    7.836   1_565     S
V4     Ti28    7.836   .     S
V5     Er38    11.082   1_554     S
V5     Er33    11.082   .     S
V5     Er37    11.082   .     S
V5     Er34    11.082   1_554     S
V5     Ti31    7.836   .     S
V5     Ti29    7.836   .     S
V6     Er37    11.082   .     S
V6     Er34    11.082   .     S
V6     Er38    11.082   .     S
V6     Er33    11.082   .     S
V6     Ti32    7.836   .     S
V6     Ti30    7.836   .     S
V7     Er40    11.082   1_554     S
V7     Er35    11.082   .     S
V7     Er39    11.082   .     S
V7     Er36    11.082   1_554     S
V7     Ti29    7.836   1_565     S
V7     Ti31    7.836   .     S
V8     Er39    11.082   .     S
V8     Er36    11.082   .     S
V8     Er40    11.082   .     S
V8     Er35    11.082   .     S
V8     Ti30    7.836   1_565     S
V8     Ti32    7.836   .     S
V9     Er33    11.082   .     S
V9     Er35    11.082   1_545     S
V9     Er36    11.082   1_544     S
V9     Er34    11.082   1_554     S
V9     Ti29    7.836   .     S
V9     Ti25    7.836   .     S
V10     Er34    11.082   .     S
V10     Er36    11.082   1_545     S
V10     Er35    11.082   1_545     S
V10     Er33    11.082   .     S
V10     Ti30    7.836   .     S
V10     Ti26    7.836   .     S
V11     Er35    11.082   .     S
V11     Er33    11.082   .     S
V11     Er34    11.082   1_554     S
V11     Er36    11.082   1_554     S
V11     Ti31    7.836   .     S
V11     Ti27    7.836   .     S
V12     Er36    11.082   .     S
V12     Er34    11.082   .     S
V12     Er33    11.082   .     S
V12     Er35    11.082   .     S
V12     Ti32    7.836   .     S
V12     Ti28    7.836   .     S
V13     Er37    11.082   .     S
V13     Er39    11.082   1_545     S
V13     Er40    11.082   1_544     S
V13     Er38    11.082   1_554     S
V13     Ti25    7.836   1_655     S
V13     Ti29    7.836   .     S
V14     Er38    11.082   .     S
V14     Er40    11.082   1_545     S
V14     Er39    11.082   1_545     S
V14     Er37    11.082   .     S
V14     Ti26    7.836   1_655     S
V14     Ti30    7.836   .     S
V15     Er39    11.082   .     S
V15     Er37    11.082   .     S
V15     Er38    11.082   1_554     S
V15     Er40    11.082   1_554     S
V15     Ti27    7.836   1_655     S
V15     Ti31    7.836   .     S
V16     Er40    11.082   .     S
V16     Er38    11.082   .     S
V16     Er37    11.082   .     S
V16     Er39    11.082   .     S
V16     Ti28    7.836   1_655     S
V16     Ti32    7.836   .     S
V17     Er33    11.082   .     S
V17     Er37    11.082   1_455     S
V17     Er39    11.082   1_445     S
V17     Er35    11.082   1_545     S
V17     Ti26    7.836   .     S
V17     Ti25    7.836   .     S
V18     Er34    11.082   .     S
V18     Er38    11.082   1_455     S
V18     Er40    11.082   1_445     S
V18     Er36    11.082   1_545     S
V18     Ti25    7.836   1_556     S
V18     Ti26    7.836   .     S
V19     Er35    11.082   .     S
V19     Er39    11.082   1_455     S
V19     Er37    11.082   1_455     S
V19     Er33    11.082   .     S
V19     Ti28    7.836   .     S
V19     Ti27    7.836   .     S
V20     Er36    11.082   .     S
V20     Er40    11.082   1_455     S
V20     Er38    11.082   1_455     S
V20     Er34    11.082   .     S
V20     Ti27    7.836   1_556     S
V20     Ti28    7.836   .     S
V21     Er37    11.082   .     S
V21     Er33    11.082   .     S
V21     Er35    11.082   1_545     S
V21     Er39    11.082   1_545     S
V21     Ti30    7.836   .     S
V21     Ti29    7.836   .     S
V22     Er38    11.082   .     S
V22     Er34    11.082   .     S
V22     Er36    11.082   1_545     S
V22     Er40    11.082   1_545     S
V22     Ti29    7.836   1_556     S
V22     Ti30    7.836   .     S
V23     Er39    11.082   .     S
V23     Er35    11.082   .     S
V23     Er33    11.082   .     S
V23     Er37    11.082   .     S
V23     Ti32    7.836   .     S
V23     Ti31    7.836   .     S
V24     Er40    11.082   .     S
V24     Er36    11.082   .     S
V24     Er34    11.082   .     S
V24     Er38    11.082   .     S
V24     Ti31    7.836   1_556     S
V24     Ti32    7.836   .     S
Ti25     V3    7.836   1_545     S
Ti25     V13    7.836   1_455     S
Ti25     V18    7.836   1_554     S
Ti26     V4    7.836   1_545     S
Ti26     V14    7.836   1_455     S
Ti27     V15    7.836   1_455     S
Ti27     V20    7.836   1_554     S
Ti28     V16    7.836   1_455     S
Ti29     V7    7.836   1_545     S
Ti29     V22    7.836   1_554     S
Ti30     V8    7.836   1_545     S
Ti31     V24    7.836   1_554     S
Er34     V1    11.082   1_556     S
Er34     V11    11.082   1_556     S
Er34     V9    11.082   1_556     S
Er34     V5    11.082   1_556     S
Er35     V21    11.082   1_565     S
Er35     V17    11.082   1_565     S
Er35     V9    11.082   1_565     S
Er35     V10    11.082   1_565     S
Er36     V3    11.082   1_556     S
Er36     V22    11.082   1_565     S
Er36     V18    11.082   1_565     S
Er36     V10    11.082   1_565     S
Er36     V9    11.082   1_566     S
Er36     V11    11.082   1_556     S
Er36     V7    11.082   1_556     S
Er37     V17    11.082   1_655     S
Er37     V19    11.082   1_655     S
Er37     V1    11.082   1_655     S
Er37     V2    11.082   1_655     S
Er38     V5    11.082   1_556     S
Er38     V18    11.082   1_655     S
Er38     V20    11.082   1_655     S
Er38     V2    11.082   1_655     S
Er38     V15    11.082   1_556     S
Er38     V13    11.082   1_556     S
Er38     V1    11.082   1_656     S
Er39     V19    11.082   1_655     S
Er39     V17    11.082   1_665     S
Er39     V21    11.082   1_565     S
Er39     V3    11.082   1_655     S
Er39     V13    11.082   1_565     S
Er39     V14    11.082   1_565     S
Er39     V4    11.082   1_655     S
Er40     V7    11.082   1_556     S
Er40     V20    11.082   1_655     S
Er40     V18    11.082   1_665     S
Er40     V22    11.082   1_565     S
Er40     V4    11.082   1_655     S
Er40     V14    11.082   1_565     S
Er40     V13    11.082   1_566     S
Er40     V15    11.082   1_556     S
Er40     V3    11.082   1_656     S
