data_xbp
_audit_creation_date              2019-12-31
_audit_creation_method            'Pymatgen'
_symmetry_space_group_name_H-M    'P1'
_symmetry_Int_Tables_number       1
loop_
_symmetry_equiv_pos_as_xyz
  x,y,z
_cell_length_a                    42.265
_cell_length_b                    42.265
_cell_length_c                    42.265
_cell_angle_alpha                 90.0
_cell_angle_beta                 90.0
_cell_angle_gamma                 90.0
loop_
_atom_site_label
_atom_site_type_symbol
_atom_site_fract_x
_atom_site_fract_y
_atom_site_fract_z
V1     V     0.0   0.25   0.25
V2     V     0.0   0.25   0.75
V3     V     0.0   0.75   0.25
V4     V     0.0   0.75   0.75
V5     V     0.5   0.25   0.25
V6     V     0.5   0.25   0.75
V7     V     0.5   0.75   0.25
V8     V     0.5   0.75   0.75
V9     V     0.25   0.0   0.25
V10     V     0.25   0.0   0.75
V11     V     0.25   0.5   0.25
V12     V     0.25   0.5   0.75
V13     V     0.75   0.0   0.25
V14     V     0.75   0.0   0.75
V15     V     0.75   0.5   0.25
V16     V     0.75   0.5   0.75
V17     V     0.25   0.25   0.0
V18     V     0.25   0.25   0.5
V19     V     0.25   0.75   0.0
V20     V     0.25   0.75   0.5
V21     V     0.75   0.25   0.0
V22     V     0.75   0.25   0.5
V23     V     0.75   0.75   0.0
V24     V     0.75   0.75   0.5
V25     V     0.0   0.0   0.0
V26     V     0.0   0.0   0.5
V27     V     0.0   0.5   0.0
V28     V     0.0   0.5   0.5
V29     V     0.5   0.0   0.0
V30     V     0.5   0.0   0.5
V31     V     0.5   0.5   0.0
V32     V     0.5   0.5   0.5
Er33     Er     0.125   0.125   0.125
Er34     Er     0.125   0.125   0.625
Er35     Er     0.125   0.625   0.125
Er36     Er     0.125   0.625   0.625
Er37     Er     0.625   0.125   0.125
Er38     Er     0.625   0.125   0.625
Er39     Er     0.625   0.625   0.125
Er40     Er     0.625   0.625   0.625
Er41     Er     0.125   0.375   0.375
Er42     Er     0.125   0.375   0.875
Er43     Er     0.125   0.875   0.375
Er44     Er     0.125   0.875   0.875
Er45     Er     0.625   0.375   0.375
Er46     Er     0.625   0.375   0.875
Er47     Er     0.625   0.875   0.375
Er48     Er     0.625   0.875   0.875
Er49     Er     0.375   0.375   0.125
Er50     Er     0.375   0.375   0.625
Er51     Er     0.375   0.875   0.125
Er52     Er     0.375   0.875   0.625
Er53     Er     0.875   0.375   0.125
Er54     Er     0.875   0.375   0.625
Er55     Er     0.875   0.875   0.125
Er56     Er     0.875   0.875   0.625
Er57     Er     0.375   0.125   0.375
Er58     Er     0.375   0.125   0.875
Er59     Er     0.375   0.625   0.375
Er60     Er     0.375   0.625   0.875
Er61     Er     0.875   0.125   0.375
Er62     Er     0.875   0.125   0.875
Er63     Er     0.875   0.625   0.375
Er64     Er     0.875   0.625   0.875
Ti65     Ti     0.125   0.125   0.375
Ti66     Ti     0.125   0.125   0.875
Ti67     Ti     0.125   0.625   0.375
Ti68     Ti     0.125   0.625   0.875
Ti69     Ti     0.625   0.125   0.375
Ti70     Ti     0.625   0.125   0.875
Ti71     Ti     0.625   0.625   0.375
Ti72     Ti     0.625   0.625   0.875
Ti73     Ti     0.125   0.375   0.125
Ti74     Ti     0.125   0.375   0.625
Ti75     Ti     0.125   0.875   0.125
Ti76     Ti     0.125   0.875   0.625
Ti77     Ti     0.625   0.375   0.125
Ti78     Ti     0.625   0.375   0.625
Ti79     Ti     0.625   0.875   0.125
Ti80     Ti     0.625   0.875   0.625
Ti81     Ti     0.375   0.375   0.375
Ti82     Ti     0.375   0.375   0.875
Ti83     Ti     0.375   0.875   0.375
Ti84     Ti     0.375   0.875   0.875
Ti85     Ti     0.875   0.375   0.375
Ti86     Ti     0.875   0.375   0.875
Ti87     Ti     0.875   0.875   0.375
Ti88     Ti     0.875   0.875   0.875
Ti89     Ti     0.375   0.125   0.125
Ti90     Ti     0.375   0.125   0.625
Ti91     Ti     0.375   0.625   0.125
Ti92     Ti     0.375   0.625   0.625
Ti93     Ti     0.875   0.125   0.125
Ti94     Ti     0.875   0.125   0.625
Ti95     Ti     0.875   0.625   0.125
Ti96     Ti     0.875   0.625   0.625
loop_
_geom_bond_atom_site_label_1
_geom_bond_atom_site_label_2
_geom_bond_distance
_geom_bond_site_symmetry_2
_ccdc_geom_bond_type
V1     Er61    9.151   1_455     S
V1     Er41    9.151   .     S
V1     Er53    9.151   1_455     S
V1     Er33    9.151   .     S
V2     Er62    9.151   1_455     S
V2     Er42    9.151   .     S
V2     Er54    9.151   1_455     S
V2     Er34    9.151   .     S
V3     Er63    9.151   1_455     S
V3     Er43    9.151   .     S
V3     Er55    9.151   1_455     S
V3     Er35    9.151   .     S
V4     Er64    9.151   1_455     S
V4     Er44    9.151   .     S
V4     Er56    9.151   1_455     S
V4     Er36    9.151   .     S
V5     Er57    9.151   .     S
V5     Er45    9.151   .     S
V5     Er49    9.151   .     S
V5     Er37    9.151   .     S
V6     Er58    9.151   .     S
V6     Er46    9.151   .     S
V6     Er50    9.151   .     S
V6     Er38    9.151   .     S
V7     Er59    9.151   .     S
V7     Er47    9.151   .     S
V7     Er51    9.151   .     S
V7     Er39    9.151   .     S
V8     Er60    9.151   .     S
V8     Er48    9.151   .     S
V8     Er52    9.151   .     S
V8     Er40    9.151   .     S
V9     Er43    9.151   1_545     S
V9     Er57    9.151   .     S
V9     Er51    9.151   1_545     S
V9     Er33    9.151   .     S
V10     Er44    9.151   1_545     S
V10     Er58    9.151   .     S
V10     Er52    9.151   1_545     S
V10     Er34    9.151   .     S
V11     Er41    9.151   .     S
V11     Er59    9.151   .     S
V11     Er49    9.151   .     S
V11     Er35    9.151   .     S
V12     Er42    9.151   .     S
V12     Er60    9.151   .     S
V12     Er50    9.151   .     S
V12     Er36    9.151   .     S
V13     Er47    9.151   1_545     S
V13     Er61    9.151   .     S
V13     Er55    9.151   1_545     S
V13     Er37    9.151   .     S
V14     Er48    9.151   1_545     S
V14     Er62    9.151   .     S
V14     Er56    9.151   1_545     S
V14     Er38    9.151   .     S
V15     Er45    9.151   .     S
V15     Er63    9.151   .     S
V15     Er53    9.151   .     S
V15     Er39    9.151   .     S
V16     Er46    9.151   .     S
V16     Er64    9.151   .     S
V16     Er54    9.151   .     S
V16     Er40    9.151   .     S
V17     Er42    9.151   1_554     S
V17     Er49    9.151   .     S
V17     Er58    9.151   1_554     S
V17     Er33    9.151   .     S
V18     Er41    9.151   .     S
V18     Er50    9.151   .     S
V18     Er57    9.151   .     S
V18     Er34    9.151   .     S
V19     Er44    9.151   1_554     S
V19     Er51    9.151   .     S
V19     Er60    9.151   1_554     S
V19     Er35    9.151   .     S
V20     Er43    9.151   .     S
V20     Er52    9.151   .     S
V20     Er59    9.151   .     S
V20     Er36    9.151   .     S
V21     Er46    9.151   1_554     S
V21     Er53    9.151   .     S
V21     Er62    9.151   1_554     S
V21     Er37    9.151   .     S
V22     Er45    9.151   .     S
V22     Er54    9.151   .     S
V22     Er61    9.151   .     S
V22     Er38    9.151   .     S
V23     Er48    9.151   1_554     S
V23     Er55    9.151   .     S
V23     Er64    9.151   1_554     S
V23     Er39    9.151   .     S
V24     Er47    9.151   .     S
V24     Er56    9.151   .     S
V24     Er63    9.151   .     S
V24     Er40    9.151   .     S
V25     Er44    9.151   1_544     S
V25     Er55    9.151   1_445     S
V25     Er62    9.151   1_454     S
V25     Er33    9.151   .     S
V26     Er43    9.151   1_545     S
V26     Er56    9.151   1_445     S
V26     Er61    9.151   1_455     S
V26     Er34    9.151   .     S
V27     Er42    9.151   1_554     S
V27     Er53    9.151   1_455     S
V27     Er64    9.151   1_454     S
V27     Er35    9.151   .     S
V28     Er41    9.151   .     S
V28     Er54    9.151   1_455     S
V28     Er63    9.151   1_455     S
V28     Er36    9.151   .     S
V29     Er48    9.151   1_544     S
V29     Er51    9.151   1_545     S
V29     Er58    9.151   1_554     S
V29     Er37    9.151   .     S
V30     Er47    9.151   1_545     S
V30     Er52    9.151   1_545     S
V30     Er57    9.151   .     S
V30     Er38    9.151   .     S
V31     Er46    9.151   1_554     S
V31     Er49    9.151   .     S
V31     Er60    9.151   1_554     S
V31     Er39    9.151   .     S
V32     Er45    9.151   .     S
V32     Er50    9.151   .     S
V32     Er59    9.151   .     S
V32     Er40    9.151   .     S
Er33     Ti66    10.566   1_554     S
Er33     Ti93    10.566   1_455     S
Er33     Ti75    10.566   1_545     S
Er33     Ti65    10.566   .     S
Er33     Ti73    10.566   .     S
Er33     Ti89    10.566   .     S
Er34     Ti65    10.566   .     S
Er34     Ti94    10.566   1_455     S
Er34     Ti76    10.566   1_545     S
Er34     Ti66    10.566   .     S
Er34     Ti74    10.566   .     S
Er34     Ti90    10.566   .     S
Er35     Ti68    10.566   1_554     S
Er35     Ti95    10.566   1_455     S
Er35     Ti73    10.566   .     S
Er35     Ti67    10.566   .     S
Er35     Ti75    10.566   .     S
Er35     Ti91    10.566   .     S
Er36     Ti67    10.566   .     S
Er36     Ti96    10.566   1_455     S
Er36     Ti74    10.566   .     S
Er36     Ti68    10.566   .     S
Er36     Ti76    10.566   .     S
Er36     Ti92    10.566   .     S
Er37     Ti70    10.566   1_554     S
Er37     Ti89    10.566   .     S
Er37     Ti79    10.566   1_545     S
Er37     Ti69    10.566   .     S
Er37     Ti77    10.566   .     S
Er37     Ti93    10.566   .     S
Er38     Ti69    10.566   .     S
Er38     Ti90    10.566   .     S
Er38     Ti80    10.566   1_545     S
Er38     Ti70    10.566   .     S
Er38     Ti78    10.566   .     S
Er38     Ti94    10.566   .     S
Er39     Ti72    10.566   1_554     S
Er39     Ti91    10.566   .     S
Er39     Ti77    10.566   .     S
Er39     Ti71    10.566   .     S
Er39     Ti79    10.566   .     S
Er39     Ti95    10.566   .     S
Er40     Ti71    10.566   .     S
Er40     Ti92    10.566   .     S
Er40     Ti78    10.566   .     S
Er40     Ti72    10.566   .     S
Er40     Ti80    10.566   .     S
Er40     Ti96    10.566   .     S
Er41     Ti74    10.566   .     S
Er41     Ti67    10.566   .     S
Er41     Ti73    10.566   .     S
Er41     Ti65    10.566   .     S
Er41     Ti85    10.566   1_455     S
Er41     Ti81    10.566   .     S
Er42     V17    9.151   1_556     S
Er42     V27    9.151   1_556     S
Er42     Ti73    10.566   1_556     S
Er42     Ti68    10.566   .     S
Er42     Ti74    10.566   .     S
Er42     Ti66    10.566   .     S
Er42     Ti86    10.566   1_455     S
Er42     Ti82    10.566   .     S
Er43     V9    9.151   1_565     S
Er43     V26    9.151   1_565     S
Er43     Ti76    10.566   .     S
Er43     Ti65    10.566   1_565     S
Er43     Ti75    10.566   .     S
Er43     Ti67    10.566   .     S
Er43     Ti87    10.566   1_455     S
Er43     Ti83    10.566   .     S
Er44     V10    9.151   1_565     S
Er44     V19    9.151   1_556     S
Er44     V25    9.151   1_566     S
Er44     Ti75    10.566   1_556     S
Er44     Ti66    10.566   1_565     S
Er44     Ti76    10.566   .     S
Er44     Ti68    10.566   .     S
Er44     Ti88    10.566   1_455     S
Er44     Ti84    10.566   .     S
Er45     Ti78    10.566   .     S
Er45     Ti71    10.566   .     S
Er45     Ti77    10.566   .     S
Er45     Ti69    10.566   .     S
Er45     Ti81    10.566   .     S
Er45     Ti85    10.566   .     S
Er46     V21    9.151   1_556     S
Er46     V31    9.151   1_556     S
Er46     Ti77    10.566   1_556     S
Er46     Ti72    10.566   .     S
Er46     Ti78    10.566   .     S
Er46     Ti70    10.566   .     S
Er46     Ti82    10.566   .     S
Er46     Ti86    10.566   .     S
Er47     V13    9.151   1_565     S
Er47     V30    9.151   1_565     S
Er47     Ti80    10.566   .     S
Er47     Ti69    10.566   1_565     S
Er47     Ti79    10.566   .     S
Er47     Ti71    10.566   .     S
Er47     Ti83    10.566   .     S
Er47     Ti87    10.566   .     S
Er48     V14    9.151   1_565     S
Er48     V23    9.151   1_556     S
Er48     V29    9.151   1_566     S
Er48     Ti79    10.566   1_556     S
Er48     Ti70    10.566   1_565     S
Er48     Ti80    10.566   .     S
Er48     Ti72    10.566   .     S
Er48     Ti84    10.566   .     S
Er48     Ti88    10.566   .     S
Er49     Ti77    10.566   .     S
Er49     Ti91    10.566   .     S
Er49     Ti89    10.566   .     S
Er49     Ti73    10.566   .     S
Er49     Ti82    10.566   1_554     S
Er49     Ti81    10.566   .     S
Er50     Ti78    10.566   .     S
Er50     Ti92    10.566   .     S
Er50     Ti90    10.566   .     S
Er50     Ti74    10.566   .     S
Er50     Ti81    10.566   .     S
Er50     Ti82    10.566   .     S
Er51     V9    9.151   1_565     S
Er51     V29    9.151   1_565     S
Er51     Ti79    10.566   .     S
Er51     Ti89    10.566   1_565     S
Er51     Ti91    10.566   .     S
Er51     Ti75    10.566   .     S
Er51     Ti84    10.566   1_554     S
Er51     Ti83    10.566   .     S
Er52     V10    9.151   1_565     S
Er52     V30    9.151   1_565     S
Er52     Ti80    10.566   .     S
Er52     Ti90    10.566   1_565     S
Er52     Ti92    10.566   .     S
Er52     Ti76    10.566   .     S
Er52     Ti83    10.566   .     S
Er52     Ti84    10.566   .     S
Er53     V1    9.151   1_655     S
Er53     V27    9.151   1_655     S
Er53     Ti73    10.566   1_655     S
Er53     Ti95    10.566   .     S
Er53     Ti93    10.566   .     S
Er53     Ti77    10.566   .     S
Er53     Ti86    10.566   1_554     S
Er53     Ti85    10.566   .     S
Er54     V2    9.151   1_655     S
Er54     V28    9.151   1_655     S
Er54     Ti74    10.566   1_655     S
Er54     Ti96    10.566   .     S
Er54     Ti94    10.566   .     S
Er54     Ti78    10.566   .     S
Er54     Ti85    10.566   .     S
Er54     Ti86    10.566   .     S
Er55     V3    9.151   1_655     S
Er55     V13    9.151   1_565     S
Er55     V25    9.151   1_665     S
Er55     Ti75    10.566   1_655     S
Er55     Ti93    10.566   1_565     S
Er55     Ti95    10.566   .     S
Er55     Ti79    10.566   .     S
Er55     Ti88    10.566   1_554     S
Er55     Ti87    10.566   .     S
Er56     V4    9.151   1_655     S
Er56     V14    9.151   1_565     S
Er56     V26    9.151   1_665     S
Er56     Ti76    10.566   1_655     S
Er56     Ti94    10.566   1_565     S
Er56     Ti96    10.566   .     S
Er56     Ti80    10.566   .     S
Er56     Ti87    10.566   .     S
Er56     Ti88    10.566   .     S
Er57     Ti90    10.566   .     S
Er57     Ti69    10.566   .     S
Er57     Ti89    10.566   .     S
Er57     Ti65    10.566   .     S
Er57     Ti83    10.566   1_545     S
Er57     Ti81    10.566   .     S
Er58     V17    9.151   1_556     S
Er58     V29    9.151   1_556     S
Er58     Ti89    10.566   1_556     S
Er58     Ti70    10.566   .     S
Er58     Ti90    10.566   .     S
Er58     Ti66    10.566   .     S
Er58     Ti84    10.566   1_545     S
Er58     Ti82    10.566   .     S
Er59     Ti92    10.566   .     S
Er59     Ti71    10.566   .     S
Er59     Ti91    10.566   .     S
Er59     Ti67    10.566   .     S
Er59     Ti81    10.566   .     S
Er59     Ti83    10.566   .     S
Er60     V19    9.151   1_556     S
Er60     V31    9.151   1_556     S
Er60     Ti91    10.566   1_556     S
Er60     Ti72    10.566   .     S
Er60     Ti92    10.566   .     S
Er60     Ti68    10.566   .     S
Er60     Ti82    10.566   .     S
Er60     Ti84    10.566   .     S
Er61     V1    9.151   1_655     S
Er61     V26    9.151   1_655     S
Er61     Ti94    10.566   .     S
Er61     Ti65    10.566   1_655     S
Er61     Ti93    10.566   .     S
Er61     Ti69    10.566   .     S
Er61     Ti87    10.566   1_545     S
Er61     Ti85    10.566   .     S
Er62     V2    9.151   1_655     S
Er62     V21    9.151   1_556     S
Er62     V25    9.151   1_656     S
Er62     Ti93    10.566   1_556     S
Er62     Ti66    10.566   1_655     S
Er62     Ti94    10.566   .     S
Er62     Ti70    10.566   .     S
Er62     Ti88    10.566   1_545     S
Er62     Ti86    10.566   .     S
Er63     V3    9.151   1_655     S
Er63     V28    9.151   1_655     S
Er63     Ti96    10.566   .     S
Er63     Ti67    10.566   1_655     S
Er63     Ti95    10.566   .     S
Er63     Ti71    10.566   .     S
Er63     Ti85    10.566   .     S
Er63     Ti87    10.566   .     S
Er64     V4    9.151   1_655     S
Er64     V23    9.151   1_556     S
Er64     V27    9.151   1_656     S
Er64     Ti95    10.566   1_556     S
Er64     Ti68    10.566   1_655     S
Er64     Ti96    10.566   .     S
Er64     Ti72    10.566   .     S
Er64     Ti86    10.566   .     S
Er64     Ti88    10.566   .     S
Ti65     Er43    10.566   1_545     S
Ti65     Er61    10.566   1_455     S
Ti66     Er44    10.566   1_545     S
Ti66     Er62    10.566   1_455     S
Ti66     Er33    10.566   1_556     S
Ti67     Er63    10.566   1_455     S
Ti68     Er64    10.566   1_455     S
Ti68     Er35    10.566   1_556     S
Ti69     Er47    10.566   1_545     S
Ti70     Er48    10.566   1_545     S
Ti70     Er37    10.566   1_556     S
Ti72     Er39    10.566   1_556     S
Ti73     Er42    10.566   1_554     S
Ti73     Er53    10.566   1_455     S
Ti74     Er54    10.566   1_455     S
Ti75     Er44    10.566   1_554     S
Ti75     Er55    10.566   1_455     S
Ti75     Er33    10.566   1_565     S
Ti76     Er56    10.566   1_455     S
Ti76     Er34    10.566   1_565     S
Ti77     Er46    10.566   1_554     S
Ti79     Er48    10.566   1_554     S
Ti79     Er37    10.566   1_565     S
Ti80     Er38    10.566   1_565     S
Ti82     Er49    10.566   1_556     S
Ti83     Er57    10.566   1_565     S
Ti84     Er51    10.566   1_556     S
Ti84     Er58    10.566   1_565     S
Ti85     Er41    10.566   1_655     S
Ti86     Er53    10.566   1_556     S
Ti86     Er42    10.566   1_655     S
Ti87     Er61    10.566   1_565     S
Ti87     Er43    10.566   1_655     S
Ti88     Er55    10.566   1_556     S
Ti88     Er62    10.566   1_565     S
Ti88     Er44    10.566   1_655     S
Ti89     Er58    10.566   1_554     S
Ti89     Er51    10.566   1_545     S
Ti90     Er52    10.566   1_545     S
Ti91     Er60    10.566   1_554     S
Ti93     Er62    10.566   1_554     S
Ti93     Er33    10.566   1_655     S
Ti93     Er55    10.566   1_545     S
Ti94     Er34    10.566   1_655     S
Ti94     Er56    10.566   1_545     S
Ti95     Er64    10.566   1_554     S
Ti95     Er35    10.566   1_655     S
Ti96     Er36    10.566   1_655     S
