data_xbs
_audit_creation_date              2019-12-31
_audit_creation_method            'Pymatgen'
_symmetry_space_group_name_H-M    'P1'
_symmetry_Int_Tables_number       1
loop_
_symmetry_equiv_pos_as_xyz
  x,y,z
_cell_length_a                    32.487
_cell_length_b                    32.487
_cell_length_c                    32.487
_cell_angle_alpha                 90.0
_cell_angle_beta                 90.0
_cell_angle_gamma                 90.0
loop_
_atom_site_label
_atom_site_type_symbol
_atom_site_fract_x
_atom_site_fract_y
_atom_site_fract_z
V1     V     0.0   0.0   0.0
V2     V     0.0   0.0   0.3333
V3     V     0.0   0.0   0.6667
V4     V     0.0   0.3333   0.0
V5     V     0.0   0.3333   0.3333
V6     V     0.0   0.3333   0.6667
V7     V     0.0   0.6667   0.0
V8     V     0.0   0.6667   0.3333
V9     V     0.0   0.6667   0.6667
V10     V     0.3333   0.0   0.0
V11     V     0.3333   0.0   0.3333
V12     V     0.3333   0.0   0.6667
V13     V     0.3333   0.3333   0.0
V14     V     0.3333   0.3333   0.3333
V15     V     0.3333   0.3333   0.6667
V16     V     0.3333   0.6667   0.0
V17     V     0.3333   0.6667   0.3333
V18     V     0.3333   0.6667   0.6667
V19     V     0.6667   0.0   0.0
V20     V     0.6667   0.0   0.3333
V21     V     0.6667   0.0   0.6667
V22     V     0.6667   0.3333   0.0
V23     V     0.6667   0.3333   0.3333
V24     V     0.6667   0.3333   0.6667
V25     V     0.6667   0.6667   0.0
V26     V     0.6667   0.6667   0.3333
V27     V     0.6667   0.6667   0.6667
Er28     Er     0.1667   0.1667   0.1667
Er29     Er     0.1667   0.1667   0.5
Er30     Er     0.1667   0.1667   0.8333
Er31     Er     0.1667   0.5   0.1667
Er32     Er     0.1667   0.5   0.5
Er33     Er     0.1667   0.5   0.8333
Er34     Er     0.1667   0.8333   0.1667
Er35     Er     0.1667   0.8333   0.5
Er36     Er     0.1667   0.8333   0.8333
Er37     Er     0.5   0.1667   0.1667
Er38     Er     0.5   0.1667   0.5
Er39     Er     0.5   0.1667   0.8333
Er40     Er     0.5   0.5   0.1667
Er41     Er     0.5   0.5   0.5
Er42     Er     0.5   0.5   0.8333
Er43     Er     0.5   0.8333   0.1667
Er44     Er     0.5   0.8333   0.5
Er45     Er     0.5   0.8333   0.8333
Er46     Er     0.8333   0.1667   0.1667
Er47     Er     0.8333   0.1667   0.5
Er48     Er     0.8333   0.1667   0.8333
Er49     Er     0.8333   0.5   0.1667
Er50     Er     0.8333   0.5   0.5
Er51     Er     0.8333   0.5   0.8333
Er52     Er     0.8333   0.8333   0.1667
Er53     Er     0.8333   0.8333   0.5
Er54     Er     0.8333   0.8333   0.8333
loop_
_geom_bond_atom_site_label_1
_geom_bond_atom_site_label_2
_geom_bond_distance
_geom_bond_site_symmetry_2
_ccdc_geom_bond_type
V1     Er28    9.378   .     S
V1     Er36    9.378   1_544     S
V1     Er52    9.378   1_445     S
V1     Er48    9.378   1_454     S
V2     Er29    9.378   .     S
V2     Er34    9.378   1_545     S
V2     Er53    9.378   1_445     S
V2     Er46    9.378   1_455     S
V3     Er30    9.378   .     S
V3     Er35    9.378   1_545     S
V3     Er54    9.378   1_445     S
V3     Er47    9.378   1_455     S
V4     Er31    9.378   .     S
V4     Er30    9.378   1_554     S
V4     Er46    9.378   1_455     S
V4     Er51    9.378   1_454     S
V5     Er32    9.378   .     S
V5     Er28    9.378   .     S
V5     Er47    9.378   1_455     S
V5     Er49    9.378   1_455     S
V6     Er33    9.378   .     S
V6     Er29    9.378   .     S
V6     Er48    9.378   1_455     S
V6     Er50    9.378   1_455     S
V7     Er34    9.378   .     S
V7     Er33    9.378   1_554     S
V7     Er49    9.378   1_455     S
V7     Er54    9.378   1_454     S
V8     Er35    9.378   .     S
V8     Er31    9.378   .     S
V8     Er50    9.378   1_455     S
V8     Er52    9.378   1_455     S
V9     Er36    9.378   .     S
V9     Er32    9.378   .     S
V9     Er51    9.378   1_455     S
V9     Er53    9.378   1_455     S
V10     Er37    9.378   .     S
V10     Er45    9.378   1_544     S
V10     Er34    9.378   1_545     S
V10     Er30    9.378   1_554     S
V11     Er38    9.378   .     S
V11     Er43    9.378   1_545     S
V11     Er35    9.378   1_545     S
V11     Er28    9.378   .     S
V12     Er39    9.378   .     S
V12     Er44    9.378   1_545     S
V12     Er36    9.378   1_545     S
V12     Er29    9.378   .     S
V13     Er40    9.378   .     S
V13     Er39    9.378   1_554     S
V13     Er28    9.378   .     S
V13     Er33    9.378   1_554     S
V14     Er41    9.378   .     S
V14     Er37    9.378   .     S
V14     Er29    9.378   .     S
V14     Er31    9.378   .     S
V15     Er42    9.378   .     S
V15     Er38    9.378   .     S
V15     Er30    9.378   .     S
V15     Er32    9.378   .     S
V16     Er43    9.378   .     S
V16     Er42    9.378   1_554     S
V16     Er31    9.378   .     S
V16     Er36    9.378   1_554     S
V17     Er44    9.378   .     S
V17     Er40    9.378   .     S
V17     Er32    9.378   .     S
V17     Er34    9.378   .     S
V18     Er45    9.378   .     S
V18     Er41    9.378   .     S
V18     Er33    9.378   .     S
V18     Er35    9.378   .     S
V19     Er46    9.378   .     S
V19     Er54    9.378   1_544     S
V19     Er43    9.378   1_545     S
V19     Er39    9.378   1_554     S
V20     Er47    9.378   .     S
V20     Er52    9.378   1_545     S
V20     Er44    9.378   1_545     S
V20     Er37    9.378   .     S
V21     Er48    9.378   .     S
V21     Er53    9.378   1_545     S
V21     Er45    9.378   1_545     S
V21     Er38    9.378   .     S
V22     Er49    9.378   .     S
V22     Er48    9.378   1_554     S
V22     Er37    9.378   .     S
V22     Er42    9.378   1_554     S
V23     Er50    9.378   .     S
V23     Er46    9.378   .     S
V23     Er38    9.378   .     S
V23     Er40    9.378   .     S
V24     Er51    9.378   .     S
V24     Er47    9.378   .     S
V24     Er39    9.378   .     S
V24     Er41    9.378   .     S
V25     Er52    9.378   .     S
V25     Er51    9.378   1_554     S
V25     Er40    9.378   .     S
V25     Er45    9.378   1_554     S
V26     Er53    9.378   .     S
V26     Er49    9.378   .     S
V26     Er41    9.378   .     S
V26     Er43    9.378   .     S
V27     Er54    9.378   .     S
V27     Er50    9.378   .     S
V27     Er42    9.378   .     S
V27     Er44    9.378   .     S
Er28     Er30    10.829   1_554     S
Er28     Er29    10.829   .     S
Er28     Er46    10.829   1_455     S
Er28     Er37    10.829   .     S
Er28     Er34    10.829   1_545     S
Er28     Er31    10.829   .     S
Er29     Er30    10.829   .     S
Er29     Er47    10.829   1_455     S
Er29     Er38    10.829   .     S
Er29     Er35    10.829   1_545     S
Er29     Er32    10.829   .     S
Er30     V4    9.378   1_556     S
Er30     V10    9.378   1_556     S
Er30     Er28    10.829   1_556     S
Er30     Er48    10.829   1_455     S
Er30     Er39    10.829   .     S
Er30     Er36    10.829   1_545     S
Er30     Er33    10.829   .     S
Er31     Er33    10.829   1_554     S
Er31     Er32    10.829   .     S
Er31     Er49    10.829   1_455     S
Er31     Er40    10.829   .     S
Er31     Er34    10.829   .     S
Er32     Er33    10.829   .     S
Er32     Er50    10.829   1_455     S
Er32     Er41    10.829   .     S
Er32     Er35    10.829   .     S
Er33     V7    9.378   1_556     S
Er33     V13    9.378   1_556     S
Er33     Er31    10.829   1_556     S
Er33     Er51    10.829   1_455     S
Er33     Er42    10.829   .     S
Er33     Er36    10.829   .     S
Er34     V2    9.378   1_565     S
Er34     V10    9.378   1_565     S
Er34     Er36    10.829   1_554     S
Er34     Er35    10.829   .     S
Er34     Er52    10.829   1_455     S
Er34     Er43    10.829   .     S
Er34     Er28    10.829   1_565     S
Er35     V3    9.378   1_565     S
Er35     V11    9.378   1_565     S
Er35     Er36    10.829   .     S
Er35     Er53    10.829   1_455     S
Er35     Er44    10.829   .     S
Er35     Er29    10.829   1_565     S
Er36     V1    9.378   1_566     S
Er36     V12    9.378   1_565     S
Er36     V16    9.378   1_556     S
Er36     Er34    10.829   1_556     S
Er36     Er54    10.829   1_455     S
Er36     Er45    10.829   .     S
Er36     Er30    10.829   1_565     S
Er37     Er39    10.829   1_554     S
Er37     Er38    10.829   .     S
Er37     Er46    10.829   .     S
Er37     Er43    10.829   1_545     S
Er37     Er40    10.829   .     S
Er38     Er39    10.829   .     S
Er38     Er47    10.829   .     S
Er38     Er44    10.829   1_545     S
Er38     Er41    10.829   .     S
Er39     V13    9.378   1_556     S
Er39     V19    9.378   1_556     S
Er39     Er37    10.829   1_556     S
Er39     Er48    10.829   .     S
Er39     Er45    10.829   1_545     S
Er39     Er42    10.829   .     S
Er40     Er42    10.829   1_554     S
Er40     Er41    10.829   .     S
Er40     Er49    10.829   .     S
Er40     Er43    10.829   .     S
Er41     Er42    10.829   .     S
Er41     Er50    10.829   .     S
Er41     Er44    10.829   .     S
Er42     V16    9.378   1_556     S
Er42     V22    9.378   1_556     S
Er42     Er40    10.829   1_556     S
Er42     Er51    10.829   .     S
Er42     Er45    10.829   .     S
Er43     V11    9.378   1_565     S
Er43     V19    9.378   1_565     S
Er43     Er45    10.829   1_554     S
Er43     Er44    10.829   .     S
Er43     Er52    10.829   .     S
Er43     Er37    10.829   1_565     S
Er44     V12    9.378   1_565     S
Er44     V20    9.378   1_565     S
Er44     Er45    10.829   .     S
Er44     Er53    10.829   .     S
Er44     Er38    10.829   1_565     S
Er45     V10    9.378   1_566     S
Er45     V21    9.378   1_565     S
Er45     V25    9.378   1_556     S
Er45     Er43    10.829   1_556     S
Er45     Er54    10.829   .     S
Er45     Er39    10.829   1_565     S
Er46     V4    9.378   1_655     S
Er46     V2    9.378   1_655     S
Er46     Er48    10.829   1_554     S
Er46     Er47    10.829   .     S
Er46     Er28    10.829   1_655     S
Er46     Er52    10.829   1_545     S
Er46     Er49    10.829   .     S
Er47     V5    9.378   1_655     S
Er47     V3    9.378   1_655     S
Er47     Er48    10.829   .     S
Er47     Er29    10.829   1_655     S
Er47     Er53    10.829   1_545     S
Er47     Er50    10.829   .     S
Er48     V22    9.378   1_556     S
Er48     V6    9.378   1_655     S
Er48     V1    9.378   1_656     S
Er48     Er46    10.829   1_556     S
Er48     Er30    10.829   1_655     S
Er48     Er54    10.829   1_545     S
Er48     Er51    10.829   .     S
Er49     V7    9.378   1_655     S
Er49     V5    9.378   1_655     S
Er49     Er51    10.829   1_554     S
Er49     Er50    10.829   .     S
Er49     Er31    10.829   1_655     S
Er49     Er52    10.829   .     S
Er50     V8    9.378   1_655     S
Er50     V6    9.378   1_655     S
Er50     Er51    10.829   .     S
Er50     Er32    10.829   1_655     S
Er50     Er53    10.829   .     S
Er51     V25    9.378   1_556     S
Er51     V9    9.378   1_655     S
Er51     V4    9.378   1_656     S
Er51     Er49    10.829   1_556     S
Er51     Er33    10.829   1_655     S
Er51     Er54    10.829   .     S
Er52     V20    9.378   1_565     S
Er52     V1    9.378   1_665     S
Er52     V8    9.378   1_655     S
Er52     Er54    10.829   1_554     S
Er52     Er53    10.829   .     S
Er52     Er34    10.829   1_655     S
Er52     Er46    10.829   1_565     S
Er53     V21    9.378   1_565     S
Er53     V2    9.378   1_665     S
Er53     V9    9.378   1_655     S
Er53     Er54    10.829   .     S
Er53     Er35    10.829   1_655     S
Er53     Er47    10.829   1_565     S
Er54     V19    9.378   1_566     S
Er54     V3    9.378   1_665     S
Er54     V7    9.378   1_656     S
Er54     Er52    10.829   1_556     S
Er54     Er36    10.829   1_655     S
Er54     Er48    10.829   1_565     S
