data_xbt
_audit_creation_date              2019-12-31
_audit_creation_method            'Pymatgen'
_symmetry_space_group_name_H-M    'P1'
_symmetry_Int_Tables_number       1
loop_
_symmetry_equiv_pos_as_xyz
  x,y,z
_cell_length_a                    33.4746
_cell_length_b                    33.4746
_cell_length_c                    33.4746
_cell_angle_alpha                 90.0
_cell_angle_beta                 90.0
_cell_angle_gamma                 90.0
loop_
_atom_site_label
_atom_site_type_symbol
_atom_site_fract_x
_atom_site_fract_y
_atom_site_fract_z
V1     V     0.375   0.375   0.375
V2     V     0.375   0.375   0.875
V3     V     0.375   0.875   0.375
V4     V     0.375   0.875   0.875
V5     V     0.875   0.375   0.375
V6     V     0.875   0.375   0.875
V7     V     0.875   0.875   0.375
V8     V     0.875   0.875   0.875
V9     V     0.125   0.125   0.125
V10     V     0.125   0.125   0.625
V11     V     0.125   0.625   0.125
V12     V     0.125   0.625   0.625
V13     V     0.625   0.125   0.125
V14     V     0.625   0.125   0.625
V15     V     0.625   0.625   0.125
V16     V     0.625   0.625   0.625
Er17     Er     0.0   0.0   0.0
Er18     Er     0.0   0.0   0.5
Er19     Er     0.0   0.5   0.0
Er20     Er     0.0   0.5   0.5
Er21     Er     0.5   0.0   0.0
Er22     Er     0.5   0.0   0.5
Er23     Er     0.5   0.5   0.0
Er24     Er     0.5   0.5   0.5
Er25     Er     0.25   0.25   0.0
Er26     Er     0.25   0.25   0.5
Er27     Er     0.25   0.75   0.0
Er28     Er     0.25   0.75   0.5
Er29     Er     0.75   0.25   0.0
Er30     Er     0.75   0.25   0.5
Er31     Er     0.75   0.75   0.0
Er32     Er     0.75   0.75   0.5
Er33     Er     0.0   0.25   0.25
Er34     Er     0.0   0.25   0.75
Er35     Er     0.0   0.75   0.25
Er36     Er     0.0   0.75   0.75
Er37     Er     0.5   0.25   0.25
Er38     Er     0.5   0.25   0.75
Er39     Er     0.5   0.75   0.25
Er40     Er     0.5   0.75   0.75
Er41     Er     0.25   0.0   0.25
Er42     Er     0.25   0.0   0.75
Er43     Er     0.25   0.5   0.25
Er44     Er     0.25   0.5   0.75
Er45     Er     0.75   0.0   0.25
Er46     Er     0.75   0.0   0.75
Er47     Er     0.75   0.5   0.25
Er48     Er     0.75   0.5   0.75
loop_
_geom_bond_atom_site_label_1
_geom_bond_atom_site_label_2
_geom_bond_distance
_geom_bond_site_symmetry_2
_ccdc_geom_bond_type
V1     Er37    7.247   .     S
V1     Er43    7.247   .     S
V1     Er26    7.247   .     S
V1     Er24    7.247   .     S
V2     Er38    7.247   .     S
V2     Er44    7.247   .     S
V2     Er25    7.247   1_556     S
V2     Er23    7.247   1_556     S
V3     Er39    7.247   .     S
V3     Er41    7.247   1_565     S
V3     Er28    7.247   .     S
V3     Er22    7.247   1_565     S
V4     Er40    7.247   .     S
V4     Er42    7.247   1_565     S
V4     Er27    7.247   1_556     S
V4     Er21    7.247   1_566     S
V5     Er33    7.247   1_655     S
V5     Er47    7.247   .     S
V5     Er30    7.247   .     S
V5     Er20    7.247   1_655     S
V6     Er34    7.247   1_655     S
V6     Er48    7.247   .     S
V6     Er29    7.247   1_556     S
V6     Er19    7.247   1_656     S
V7     Er35    7.247   1_655     S
V7     Er45    7.247   1_565     S
V7     Er32    7.247   .     S
V7     Er18    7.247   1_665     S
V8     Er36    7.247   1_655     S
V8     Er46    7.247   1_565     S
V8     Er31    7.247   1_556     S
V8     Er17    7.247   1_666     S
V9     Er17    7.247   .     S
V9     Er25    7.247   .     S
V9     Er33    7.247   .     S
V9     Er41    7.247   .     S
V10     Er18    7.247   .     S
V10     Er26    7.247   .     S
V10     Er34    7.247   .     S
V10     Er42    7.247   .     S
V11     Er19    7.247   .     S
V11     Er27    7.247   .     S
V11     Er35    7.247   .     S
V11     Er43    7.247   .     S
V12     Er20    7.247   .     S
V12     Er28    7.247   .     S
V12     Er36    7.247   .     S
V12     Er44    7.247   .     S
V13     Er21    7.247   .     S
V13     Er29    7.247   .     S
V13     Er37    7.247   .     S
V13     Er45    7.247   .     S
V14     Er22    7.247   .     S
V14     Er30    7.247   .     S
V14     Er38    7.247   .     S
V14     Er46    7.247   .     S
V15     Er23    7.247   .     S
V15     Er31    7.247   .     S
V15     Er39    7.247   .     S
V15     Er47    7.247   .     S
V16     Er24    7.247   .     S
V16     Er32    7.247   .     S
V16     Er40    7.247   .     S
V16     Er48    7.247   .     S
Er17     V8    7.247   1_444     S
Er17     Er34    11.835   1_554     S
Er17     Er45    11.835   1_455     S
Er17     Er27    11.835   1_545     S
Er17     Er35    11.835   1_545     S
Er17     Er42    11.835   1_554     S
Er17     Er29    11.835   1_455     S
Er18     V7    7.247   1_445     S
Er18     Er33    11.835   .     S
Er18     Er46    11.835   1_455     S
Er18     Er28    11.835   1_545     S
Er18     Er36    11.835   1_545     S
Er18     Er41    11.835   .     S
Er18     Er30    11.835   1_455     S
Er19     V6    7.247   1_454     S
Er19     Er36    11.835   1_554     S
Er19     Er47    11.835   1_455     S
Er19     Er25    11.835   .     S
Er19     Er33    11.835   .     S
Er19     Er44    11.835   1_554     S
Er19     Er31    11.835   1_455     S
Er20     V5    7.247   1_455     S
Er20     Er35    11.835   .     S
Er20     Er48    11.835   1_455     S
Er20     Er26    11.835   .     S
Er20     Er34    11.835   .     S
Er20     Er43    11.835   .     S
Er20     Er32    11.835   1_455     S
Er21     V4    7.247   1_544     S
Er21     Er38    11.835   1_554     S
Er21     Er41    11.835   .     S
Er21     Er31    11.835   1_545     S
Er21     Er39    11.835   1_545     S
Er21     Er46    11.835   1_554     S
Er21     Er25    11.835   .     S
Er22     V3    7.247   1_545     S
Er22     Er37    11.835   .     S
Er22     Er42    11.835   .     S
Er22     Er32    11.835   1_545     S
Er22     Er40    11.835   1_545     S
Er22     Er45    11.835   .     S
Er22     Er26    11.835   .     S
Er23     V2    7.247   1_554     S
Er23     Er40    11.835   1_554     S
Er23     Er43    11.835   .     S
Er23     Er29    11.835   .     S
Er23     Er37    11.835   .     S
Er23     Er48    11.835   1_554     S
Er23     Er27    11.835   .     S
Er24     Er39    11.835   .     S
Er24     Er44    11.835   .     S
Er24     Er30    11.835   .     S
Er24     Er38    11.835   .     S
Er24     Er47    11.835   .     S
Er24     Er28    11.835   .     S
Er25     V2    7.247   1_554     S
Er25     Er37    11.835   .     S
Er25     Er42    11.835   1_554     S
Er25     Er34    11.835   1_554     S
Er25     Er43    11.835   .     S
Er26     Er38    11.835   .     S
Er26     Er41    11.835   .     S
Er26     Er33    11.835   .     S
Er26     Er44    11.835   .     S
Er27     V4    7.247   1_554     S
Er27     Er39    11.835   .     S
Er27     Er44    11.835   1_554     S
Er27     Er17    11.835   1_565     S
Er27     Er36    11.835   1_554     S
Er27     Er41    11.835   1_565     S
Er28     Er40    11.835   .     S
Er28     Er43    11.835   .     S
Er28     Er18    11.835   1_565     S
Er28     Er35    11.835   .     S
Er28     Er42    11.835   1_565     S
Er29     V6    7.247   1_554     S
Er29     Er33    11.835   1_655     S
Er29     Er46    11.835   1_554     S
Er29     Er38    11.835   1_554     S
Er29     Er47    11.835   .     S
Er29     Er17    11.835   1_655     S
Er30     Er34    11.835   1_655     S
Er30     Er45    11.835   .     S
Er30     Er37    11.835   .     S
Er30     Er48    11.835   .     S
Er30     Er18    11.835   1_655     S
Er31     V8    7.247   1_554     S
Er31     Er35    11.835   1_655     S
Er31     Er48    11.835   1_554     S
Er31     Er21    11.835   1_565     S
Er31     Er40    11.835   1_554     S
Er31     Er45    11.835   1_565     S
Er31     Er19    11.835   1_655     S
Er32     Er36    11.835   1_655     S
Er32     Er47    11.835   .     S
Er32     Er22    11.835   1_565     S
Er32     Er39    11.835   .     S
Er32     Er46    11.835   1_565     S
Er32     Er20    11.835   1_655     S
Er33     V5    7.247   1_455     S
Er33     Er29    11.835   1_455     S
Er33     Er43    11.835   .     S
Er33     Er45    11.835   1_455     S
Er34     V6    7.247   1_455     S
Er34     Er17    11.835   1_556     S
Er34     Er30    11.835   1_455     S
Er34     Er44    11.835   .     S
Er34     Er25    11.835   1_556     S
Er34     Er46    11.835   1_455     S
Er35     V7    7.247   1_455     S
Er35     Er31    11.835   1_455     S
Er35     Er41    11.835   1_565     S
Er35     Er17    11.835   1_565     S
Er35     Er47    11.835   1_455     S
Er36     V8    7.247   1_455     S
Er36     Er19    11.835   1_556     S
Er36     Er32    11.835   1_455     S
Er36     Er42    11.835   1_565     S
Er36     Er18    11.835   1_565     S
Er36     Er27    11.835   1_556     S
Er36     Er48    11.835   1_455     S
Er37     Er47    11.835   .     S
Er37     Er41    11.835   .     S
Er38     Er21    11.835   1_556     S
Er38     Er48    11.835   .     S
Er38     Er29    11.835   1_556     S
Er38     Er42    11.835   .     S
Er39     Er45    11.835   1_565     S
Er39     Er21    11.835   1_565     S
Er39     Er43    11.835   .     S
Er40     Er23    11.835   1_556     S
Er40     Er46    11.835   1_565     S
Er40     Er22    11.835   1_565     S
Er40     Er31    11.835   1_556     S
Er40     Er44    11.835   .     S
Er41     V3    7.247   1_545     S
Er41     Er35    11.835   1_545     S
Er41     Er27    11.835   1_545     S
Er42     V4    7.247   1_545     S
Er42     Er25    11.835   1_556     S
Er42     Er36    11.835   1_545     S
Er42     Er28    11.835   1_545     S
Er42     Er17    11.835   1_556     S
Er44     Er27    11.835   1_556     S
Er44     Er19    11.835   1_556     S
Er45     V7    7.247   1_545     S
Er45     Er17    11.835   1_655     S
Er45     Er39    11.835   1_545     S
Er45     Er31    11.835   1_545     S
Er45     Er33    11.835   1_655     S
Er46     V8    7.247   1_545     S
Er46     Er29    11.835   1_556     S
Er46     Er18    11.835   1_655     S
Er46     Er40    11.835   1_545     S
Er46     Er32    11.835   1_545     S
Er46     Er21    11.835   1_556     S
Er46     Er34    11.835   1_655     S
Er47     Er19    11.835   1_655     S
Er47     Er35    11.835   1_655     S
Er48     Er31    11.835   1_556     S
Er48     Er20    11.835   1_655     S
Er48     Er23    11.835   1_556     S
Er48     Er36    11.835   1_655     S
