data_xca
_audit_creation_date              2019-12-31
_audit_creation_method            'Pymatgen'
_symmetry_space_group_name_H-M    'P1'
_symmetry_Int_Tables_number       1
loop_
_symmetry_equiv_pos_as_xyz
  x,y,z
_cell_length_a                    26.6744
_cell_length_b                    44.618
_cell_length_c                    35.0822
_cell_angle_alpha                 90.0
_cell_angle_beta                 90.0
_cell_angle_gamma                 90.0
loop_
_atom_site_label
_atom_site_type_symbol
_atom_site_fract_x
_atom_site_fract_y
_atom_site_fract_z
V1     V     0.6874   0.7887   0.25
V2     V     0.6874   0.7887   0.75
V3     V     0.8126   0.7113   0.0
V4     V     0.8126   0.7113   0.5
Er5     Er     0.8126   0.0   0.25
Er6     Er     0.8126   0.0   0.75
Er7     Er     0.6874   0.5   0.0
Er8     Er     0.6874   0.5   0.5
V9     V     0.8126   0.2887   0.0
V10     V     0.8126   0.2887   0.5
V11     V     0.6874   0.2113   0.25
V12     V     0.6874   0.2113   0.75
V13     V     0.3125   0.7887   0.25
V14     V     0.3125   0.7887   0.75
V15     V     0.1874   0.7113   0.0
V16     V     0.1874   0.7113   0.5
Er17     Er     0.3125   0.5   0.0
Er18     Er     0.3125   0.5   0.5
V19     V     0.1874   0.2887   0.0
V20     V     0.1874   0.2887   0.5
V21     V     0.3125   0.2113   0.25
V22     V     0.3125   0.2113   0.75
Er23     Er     0.1874   0.0   0.25
Er24     Er     0.1874   0.0   0.75
loop_
_geom_bond_atom_site_label_1
_geom_bond_atom_site_label_2
_geom_bond_distance
_geom_bond_site_symmetry_2
_ccdc_geom_bond_type
V1     V3    10.0   .     S
V1     V4    10.0   .     S
V1     Er5    10.0   1_565     S
V1     V13    10.0   .     S
V2     V4    10.0   .     S
V2     V3    10.0   1_556     S
V2     Er6    10.0   1_565     S
V2     V14    10.0   .     S
V3     V2    10.0   1_554     S
V3     Er7    10.0   .     S
V3     V15    10.0   1_655     S
V4     Er8    10.0   .     S
V4     V16    10.0   1_655     S
Er5     V11    10.0   .     S
Er5     V1    10.0   1_545     S
Er5     Er23    10.0   1_655     S
Er6     V12    10.0   .     S
Er6     V2    10.0   1_545     S
Er6     Er24    10.0   1_655     S
Er7     V9    10.0   .     S
Er7     Er17    10.0   .     S
Er8     V10    10.0   .     S
Er8     Er18    10.0   .     S
V9     V12    10.0   1_554     S
V9     V11    10.0   .     S
V9     V19    10.0   1_655     S
V10     V11    10.0   .     S
V10     V12    10.0   .     S
V10     V20    10.0   1_655     S
V11     V21    10.0   .     S
V12     V9    10.0   1_556     S
V12     V22    10.0   .     S
V13     V16    10.0   .     S
V13     V15    10.0   .     S
V13     Er23    10.0   1_565     S
V14     V15    10.0   1_556     S
V14     V16    10.0   .     S
V14     Er24    10.0   1_565     S
V15     V14    10.0   1_554     S
V15     Er17    10.0   .     S
V15     V3    10.0   1_455     S
V16     Er18    10.0   .     S
V16     V4    10.0   1_455     S
Er17     V19    10.0   .     S
Er18     V20    10.0   .     S
V19     V21    10.0   .     S
V19     V22    10.0   1_554     S
V19     V9    10.0   1_455     S
V20     V22    10.0   .     S
V20     V21    10.0   .     S
V20     V10    10.0   1_455     S
V21     Er23    10.0   .     S
V22     V19    10.0   1_556     S
V22     Er24    10.0   .     S
Er23     V13    10.0   1_545     S
Er23     Er5    10.0   1_455     S
Er24     V14    10.0   1_545     S
Er24     Er6    10.0   1_455     S
