data_xfa
_audit_creation_date              2019-12-31
_audit_creation_method            'Pymatgen'
_symmetry_space_group_name_H-M    'P1'
_symmetry_Int_Tables_number       1
loop_
_symmetry_equiv_pos_as_xyz
  x,y,z
_cell_length_a                    26.855
_cell_length_b                    26.855
_cell_length_c                    30.0
_cell_angle_alpha                 90.0
_cell_angle_beta                 90.0
_cell_angle_gamma                 90.0
loop_
_atom_site_label
_atom_site_type_symbol
_atom_site_fract_x
_atom_site_fract_y
_atom_site_fract_z
V1     V     0.2457   0.0176   0.25
V2     V     0.2457   0.0176   0.5833
V3     V     0.2457   0.0176   0.9167
V4     V     0.5176   0.2543   0.1667
V5     V     0.5176   0.2543   0.5
V6     V     0.5176   0.2543   0.8333
V7     V     0.4824   0.7457   0.0
V8     V     0.4824   0.7457   0.3333
V9     V     0.4824   0.7457   0.6667
V10     V     0.7543   0.9824   0.0833
V11     V     0.7543   0.9824   0.4167
V12     V     0.7543   0.9824   0.75
V13     V     0.0176   0.2457   0.0833
V14     V     0.0176   0.2457   0.4167
V15     V     0.0176   0.2457   0.75
V16     V     0.2543   0.5176   0.1667
V17     V     0.2543   0.5176   0.5
V18     V     0.2543   0.5176   0.8333
V19     V     0.7457   0.4824   0.3333
V20     V     0.7457   0.4824   0.6667
V21     V     0.7457   0.4824   1.0
V22     V     0.9824   0.7543   0.25
V23     V     0.9824   0.7543   0.5833
V24     V     0.9824   0.7543   0.9167
loop_
_geom_bond_atom_site_label_1
_geom_bond_atom_site_label_2
_geom_bond_distance
_geom_bond_site_symmetry_2
_ccdc_geom_bond_type
V1     V13    10.0   .     S
V1     V3    10.0   1_554     S
V1     V2    10.0   .     S
V1     V4    10.0   .     S
V1     V8    10.0   1_545     S
V1     V14    10.0   .     S
V1     V22    10.0   1_445     S
V2     V14    10.0   .     S
V2     V3    10.0   .     S
V2     V5    10.0   .     S
V2     V9    10.0   1_545     S
V2     V15    10.0   .     S
V2     V23    10.0   1_445     S
V3     V15    10.0   .     S
V3     V1    10.0   1_556     S
V3     V6    10.0   .     S
V3     V7    10.0   1_546     S
V3     V13    10.0   1_556     S
V3     V24    10.0   1_445     S
V4     V10    10.0   1_545     S
V4     V19    10.0   .     S
V4     V21    10.0   1_554     S
V4     V6    10.0   1_554     S
V4     V5    10.0   .     S
V4     V16    10.0   .     S
V5     V11    10.0   1_545     S
V5     V20    10.0   .     S
V5     V19    10.0   .     S
V5     V6    10.0   .     S
V5     V17    10.0   .     S
V6     V12    10.0   1_545     S
V6     V21    10.0   .     S
V6     V20    10.0   .     S
V6     V4    10.0   1_556     S
V6     V18    10.0   .     S
V7     V8    10.0   .     S
V7     V9    10.0   1_554     S
V7     V18    10.0   1_554     S
V7     V3    10.0   1_564     S
V7     V10    10.0   .     S
V7     V16    10.0   .     S
V7     V21    10.0   1_554     S
V8     V9    10.0   .     S
V8     V16    10.0   .     S
V8     V1    10.0   1_565     S
V8     V11    10.0   .     S
V8     V17    10.0   .     S
V8     V19    10.0   .     S
V9     V7    10.0   1_556     S
V9     V17    10.0   .     S
V9     V2    10.0   1_565     S
V9     V12    10.0   .     S
V9     V18    10.0   .     S
V9     V20    10.0   .     S
V10     V24    10.0   1_554     S
V10     V11    10.0   .     S
V10     V12    10.0   1_554     S
V10     V4    10.0   1_565     S
V10     V22    10.0   .     S
V10     V13    10.0   1_665     S
V11     V22    10.0   .     S
V11     V12    10.0   .     S
V11     V5    10.0   1_565     S
V11     V23    10.0   .     S
V11     V14    10.0   1_665     S
V12     V23    10.0   .     S
V12     V10    10.0   1_556     S
V12     V6    10.0   1_565     S
V12     V24    10.0   .     S
V12     V15    10.0   1_665     S
V13     V14    10.0   .     S
V13     V15    10.0   1_554     S
V13     V16    10.0   .     S
V13     V21    10.0   1_454     S
V13     V3    10.0   1_554     S
V13     V10    10.0   1_445     S
V14     V15    10.0   .     S
V14     V17    10.0   .     S
V14     V19    10.0   1_455     S
V14     V11    10.0   1_445     S
V15     V13    10.0   1_556     S
V15     V18    10.0   .     S
V15     V20    10.0   1_455     S
V15     V12    10.0   1_445     S
V16     V17    10.0   .     S
V16     V18    10.0   1_554     S
V16     V22    10.0   1_455     S
V17     V18    10.0   .     S
V17     V23    10.0   1_455     S
V18     V7    10.0   1_556     S
V18     V16    10.0   1_556     S
V18     V24    10.0   1_455     S
V19     V14    10.0   1_655     S
V19     V22    10.0   .     S
V19     V21    10.0   1_554     S
V19     V20    10.0   .     S
V20     V15    10.0   1_655     S
V20     V23    10.0   .     S
V20     V21    10.0   .     S
V21     V13    10.0   1_656     S
V21     V24    10.0   .     S
V21     V19    10.0   1_556     S
V21     V4    10.0   1_556     S
V21     V7    10.0   1_556     S
V22     V24    10.0   1_554     S
V22     V23    10.0   .     S
V22     V16    10.0   1_655     S
V22     V1    10.0   1_665     S
V23     V24    10.0   .     S
V23     V17    10.0   1_655     S
V23     V2    10.0   1_665     S
V24     V22    10.0   1_556     S
V24     V10    10.0   1_556     S
V24     V18    10.0   1_655     S
V24     V3    10.0   1_665     S
