data_xfb
_audit_creation_date              2019-12-31
_audit_creation_method            'Pymatgen'
_symmetry_space_group_name_H-M    'P1'
_symmetry_Int_Tables_number       1
loop_
_symmetry_equiv_pos_as_xyz
  x,y,z
_cell_length_a                    37.9793
_cell_length_b                    37.9793
_cell_length_c                    29.9997
_cell_angle_alpha                 90.0
_cell_angle_beta                 90.0
_cell_angle_gamma                 90.0
loop_
_atom_site_label
_atom_site_type_symbol
_atom_site_fract_x
_atom_site_fract_y
_atom_site_fract_z
V1     V     0.9065   0.5895   0.3031
V2     V     0.9065   0.5895   0.6364
V3     V     0.9065   0.5895   0.9698
V4     V     0.5935   0.9105   0.1969
V5     V     0.5935   0.9105   0.5302
V6     V     0.5935   0.9105   0.8636
V7     V     0.8395   0.3435   0.0531
V8     V     0.8395   0.3435   0.3864
V9     V     0.8395   0.3435   0.7198
V10     V     0.1605   0.6565   0.2802
V11     V     0.1605   0.6565   0.6136
V12     V     0.1605   0.6565   0.9469
V13     V     0.5935   0.4105   0.1364
V14     V     0.5935   0.4105   0.4698
V15     V     0.5935   0.4105   0.8031
V16     V     0.9065   0.0895   0.0302
V17     V     0.9065   0.0895   0.3636
V18     V     0.9065   0.0895   0.6969
V19     V     0.3395   0.3435   0.1136
V20     V     0.3395   0.3435   0.4469
V21     V     0.3395   0.3435   0.7802
V22     V     0.6605   0.6565   0.2198
V23     V     0.6605   0.6565   0.5531
V24     V     0.6605   0.6565   0.8864
V25     V     0.4065   0.5895   0.1969
V26     V     0.4065   0.5895   0.5302
V27     V     0.4065   0.5895   0.8636
V28     V     0.0935   0.9105   0.3031
V29     V     0.0935   0.9105   0.6364
V30     V     0.0935   0.9105   0.9698
V31     V     0.8395   0.8435   0.2802
V32     V     0.8395   0.8435   0.6136
V33     V     0.8395   0.8435   0.9469
V34     V     0.1605   0.1565   0.0531
V35     V     0.1605   0.1565   0.3864
V36     V     0.1605   0.1565   0.7198
V37     V     0.0935   0.4105   0.0302
V38     V     0.0935   0.4105   0.3636
V39     V     0.0935   0.4105   0.6969
V40     V     0.4065   0.0895   0.1364
V41     V     0.4065   0.0895   0.4698
V42     V     0.4065   0.0895   0.8031
V43     V     0.6605   0.1565   0.1136
V44     V     0.6605   0.1565   0.4469
V45     V     0.6605   0.1565   0.7802
V46     V     0.3395   0.8435   0.2198
V47     V     0.3395   0.8435   0.5531
V48     V     0.3395   0.8435   0.8864
loop_
_geom_bond_atom_site_label_1
_geom_bond_atom_site_label_2
_geom_bond_distance
_geom_bond_site_symmetry_2
_ccdc_geom_bond_type
V1     V22    10.0   .     S
V1     V31    10.0   .     S
V1     V3    10.0   1_554     S
V1     V2    10.0   .     S
V1     V8    10.0   .     S
V1     V10    10.0   1_655     S
V1     V38    10.0   1_655     S
V2     V23    10.0   .     S
V2     V32    10.0   .     S
V2     V3    10.0   .     S
V2     V9    10.0   .     S
V2     V11    10.0   1_655     S
V2     V39    10.0   1_655     S
V3     V24    10.0   .     S
V3     V33    10.0   .     S
V3     V1    10.0   1_556     S
V3     V7    10.0   1_556     S
V3     V12    10.0   1_655     S
V3     V37    10.0   1_656     S
V4     V31    10.0   .     S
V4     V22    10.0   .     S
V4     V6    10.0   1_554     S
V4     V5    10.0   .     S
V4     V43    10.0   1_565     S
V4     V46    10.0   .     S
V4     V40    10.0   1_565     S
V5     V32    10.0   .     S
V5     V23    10.0   .     S
V5     V6    10.0   .     S
V5     V44    10.0   1_565     S
V5     V47    10.0   .     S
V5     V41    10.0   1_565     S
V6     V33    10.0   .     S
V6     V24    10.0   .     S
V6     V4    10.0   1_556     S
V6     V45    10.0   1_565     S
V6     V48    10.0   .     S
V6     V42    10.0   1_565     S
V7     V3    10.0   1_554     S
V7     V37    10.0   1_655     S
V7     V8    10.0   .     S
V7     V9    10.0   1_554     S
V7     V13    10.0   .     S
V7     V16    10.0   .     S
V7     V43    10.0   .     S
V8     V38    10.0   1_655     S
V8     V9    10.0   .     S
V8     V14    10.0   .     S
V8     V17    10.0   .     S
V8     V44    10.0   .     S
V9     V39    10.0   1_655     S
V9     V7    10.0   1_556     S
V9     V15    10.0   .     S
V9     V18    10.0   .     S
V9     V45    10.0   .     S
V10     V38    10.0   .     S
V10     V1    10.0   1_455     S
V10     V12    10.0   1_554     S
V10     V11    10.0   .     S
V10     V25    10.0   .     S
V10     V28    10.0   .     S
V10     V46    10.0   .     S
V11     V39    10.0   .     S
V11     V2    10.0   1_455     S
V11     V12    10.0   .     S
V11     V26    10.0   .     S
V11     V29    10.0   .     S
V11     V47    10.0   .     S
V12     V37    10.0   1_556     S
V12     V3    10.0   1_455     S
V12     V10    10.0   1_556     S
V12     V27    10.0   .     S
V12     V30    10.0   .     S
V12     V48    10.0   .     S
V13     V43    10.0   .     S
V13     V14    10.0   .     S
V13     V15    10.0   1_554     S
V13     V19    10.0   .     S
V13     V22    10.0   .     S
V13     V25    10.0   .     S
V14     V44    10.0   .     S
V14     V15    10.0   .     S
V14     V20    10.0   .     S
V14     V23    10.0   .     S
V14     V26    10.0   .     S
V15     V45    10.0   .     S
V15     V13    10.0   1_556     S
V15     V21    10.0   .     S
V15     V24    10.0   .     S
V15     V27    10.0   .     S
V16     V43    10.0   .     S
V16     V17    10.0   .     S
V16     V18    10.0   1_554     S
V16     V33    10.0   1_544     S
V16     V34    10.0   1_655     S
V16     V30    10.0   1_644     S
V17     V44    10.0   .     S
V17     V18    10.0   .     S
V17     V31    10.0   1_545     S
V17     V35    10.0   1_655     S
V17     V28    10.0   1_645     S
V18     V45    10.0   .     S
V18     V16    10.0   1_556     S
V18     V32    10.0   1_545     S
V18     V36    10.0   1_655     S
V18     V29    10.0   1_645     S
V19     V25    10.0   .     S
V19     V20    10.0   .     S
V19     V21    10.0   1_554     S
V19     V37    10.0   .     S
V19     V40    10.0   .     S
V19     V34    10.0   .     S
V20     V26    10.0   .     S
V20     V21    10.0   .     S
V20     V38    10.0   .     S
V20     V41    10.0   .     S
V20     V35    10.0   .     S
V21     V27    10.0   .     S
V21     V19    10.0   1_556     S
V21     V39    10.0   .     S
V21     V42    10.0   .     S
V21     V36    10.0   .     S
V22     V31    10.0   .     S
V22     V25    10.0   .     S
V22     V24    10.0   1_554     S
V22     V23    10.0   .     S
V23     V32    10.0   .     S
V23     V26    10.0   .     S
V23     V24    10.0   .     S
V24     V33    10.0   .     S
V24     V27    10.0   .     S
V24     V22    10.0   1_556     S
V25     V46    10.0   .     S
V25     V27    10.0   1_554     S
V25     V26    10.0   .     S
V26     V47    10.0   .     S
V26     V27    10.0   .     S
V27     V48    10.0   .     S
V27     V25    10.0   1_556     S
V28     V46    10.0   .     S
V28     V30    10.0   1_554     S
V28     V29    10.0   .     S
V28     V31    10.0   1_455     S
V28     V35    10.0   1_565     S
V28     V17    10.0   1_465     S
V29     V47    10.0   .     S
V29     V30    10.0   .     S
V29     V32    10.0   1_455     S
V29     V36    10.0   1_565     S
V29     V18    10.0   1_465     S
V30     V48    10.0   .     S
V30     V28    10.0   1_556     S
V30     V33    10.0   1_455     S
V30     V34    10.0   1_566     S
V30     V16    10.0   1_466     S
V31     V17    10.0   1_565     S
V31     V28    10.0   1_655     S
V31     V33    10.0   1_554     S
V31     V32    10.0   .     S
V32     V18    10.0   1_565     S
V32     V29    10.0   1_655     S
V32     V33    10.0   .     S
V33     V16    10.0   1_566     S
V33     V30    10.0   1_655     S
V33     V31    10.0   1_556     S
V34     V30    10.0   1_544     S
V34     V16    10.0   1_455     S
V34     V35    10.0   .     S
V34     V36    10.0   1_554     S
V34     V37    10.0   .     S
V34     V40    10.0   .     S
V35     V28    10.0   1_545     S
V35     V17    10.0   1_455     S
V35     V36    10.0   .     S
V35     V38    10.0   .     S
V35     V41    10.0   .     S
V36     V29    10.0   1_545     S
V36     V18    10.0   1_455     S
V36     V34    10.0   1_556     S
V36     V39    10.0   .     S
V36     V42    10.0   .     S
V37     V7    10.0   1_455     S
V37     V12    10.0   1_554     S
V37     V3    10.0   1_454     S
V37     V38    10.0   .     S
V37     V39    10.0   1_554     S
V38     V8    10.0   1_455     S
V38     V1    10.0   1_455     S
V38     V39    10.0   .     S
V39     V9    10.0   1_455     S
V39     V2    10.0   1_455     S
V39     V37    10.0   1_556     S
V40     V41    10.0   .     S
V40     V42    10.0   1_554     S
V40     V43    10.0   .     S
V40     V46    10.0   1_545     S
V40     V4    10.0   1_545     S
V41     V42    10.0   .     S
V41     V44    10.0   .     S
V41     V47    10.0   1_545     S
V41     V5    10.0   1_545     S
V42     V40    10.0   1_556     S
V42     V45    10.0   .     S
V42     V48    10.0   1_545     S
V42     V6    10.0   1_545     S
V43     V4    10.0   1_545     S
V43     V44    10.0   .     S
V43     V45    10.0   1_554     S
V44     V5    10.0   1_545     S
V44     V45    10.0   .     S
V45     V6    10.0   1_545     S
V45     V43    10.0   1_556     S
V46     V40    10.0   1_565     S
V46     V48    10.0   1_554     S
V46     V47    10.0   .     S
V47     V41    10.0   1_565     S
V47     V48    10.0   .     S
V48     V42    10.0   1_565     S
V48     V46    10.0   1_556     S
