data_xfe
_audit_creation_date              2019-12-31
_audit_creation_method            'Pymatgen'
_symmetry_space_group_name_H-M    'P1'
_symmetry_Int_Tables_number       1
loop_
_symmetry_equiv_pos_as_xyz
  x,y,z
_cell_length_a                    24.0455
_cell_length_b                    24.0455
_cell_length_c                    40.5406
_cell_angle_alpha                 90.0
_cell_angle_beta                 90.0
_cell_angle_gamma                 90.0
loop_
_atom_site_label
_atom_site_type_symbol
_atom_site_fract_x
_atom_site_fract_y
_atom_site_fract_z
V1     V     0.2921   0.75   0.0481
V2     V     0.2921   0.75   0.5481
V3     V     0.7079   0.75   0.0481
V4     V     0.7079   0.75   0.5481
V5     V     0.0   0.5421   0.4231
V6     V     0.0   0.5421   0.9231
V7     V     0.0   0.0421   0.0769
V8     V     0.0   0.0421   0.5769
V9     V     0.0   0.9579   0.4231
V10     V     0.0   0.9579   0.9231
V11     V     0.7921   0.75   0.2019
V12     V     0.7921   0.75   0.7019
V13     V     0.0   0.4579   0.0769
V14     V     0.0   0.4579   0.5769
V15     V     0.2921   0.25   0.4519
V16     V     0.2921   0.25   0.9519
V17     V     0.2079   0.25   0.2981
V18     V     0.2079   0.25   0.7981
V19     V     0.2079   0.75   0.2019
V20     V     0.2079   0.75   0.7019
V21     V     0.5   0.5421   0.3269
V22     V     0.5   0.5421   0.8269
V23     V     0.7921   0.25   0.2981
V24     V     0.7921   0.25   0.7981
V25     V     0.5   0.9579   0.3269
V26     V     0.5   0.9579   0.8269
V27     V     0.7079   0.25   0.4519
V28     V     0.7079   0.25   0.9519
V29     V     0.5   0.0421   0.1731
V30     V     0.5   0.0421   0.6731
V31     V     0.5   0.4579   0.1731
V32     V     0.5   0.4579   0.6731
loop_
_geom_bond_atom_site_label_1
_geom_bond_atom_site_label_2
_geom_bond_distance
_geom_bond_site_symmetry_2
_ccdc_geom_bond_type
V1     V6    10.0   1_554     S
V1     V13    10.0   .     S
V1     V31    10.0   .     S
V1     V10    10.0   1_554     S
V1     V7    10.0   1_565     S
V1     V3    10.0   .     S
V1     V29    10.0   1_565     S
V2     V5    10.0   .     S
V2     V14    10.0   .     S
V2     V32    10.0   .     S
V2     V9    10.0   .     S
V2     V8    10.0   1_565     S
V2     V4    10.0   .     S
V2     V30    10.0   1_565     S
V3     V31    10.0   .     S
V3     V10    10.0   1_654     S
V3     V7    10.0   1_665     S
V3     V6    10.0   1_654     S
V3     V13    10.0   1_655     S
V3     V29    10.0   1_565     S
V4     V32    10.0   .     S
V4     V9    10.0   1_655     S
V4     V8    10.0   1_665     S
V4     V5    10.0   1_655     S
V4     V14    10.0   1_655     S
V4     V30    10.0   1_565     S
V5     V15    10.0   .     S
V5     V17    10.0   .     S
V5     V27    10.0   1_455     S
V5     V23    10.0   1_455     S
V5     V4    10.0   1_455     S
V5     V9    10.0   .     S
V6     V16    10.0   .     S
V6     V18    10.0   .     S
V6     V1    10.0   1_556     S
V6     V28    10.0   1_455     S
V6     V24    10.0   1_455     S
V6     V3    10.0   1_456     S
V6     V10    10.0   .     S
V7     V28    10.0   1_454     S
V7     V16    10.0   1_554     S
V7     V1    10.0   1_545     S
V7     V19    10.0   1_545     S
V7     V3    10.0   1_445     S
V7     V11    10.0   1_445     S
V7     V13    10.0   .     S
V8     V27    10.0   1_455     S
V8     V15    10.0   .     S
V8     V2    10.0   1_545     S
V8     V20    10.0   1_545     S
V8     V4    10.0   1_445     S
V8     V12    10.0   1_445     S
V8     V14    10.0   .     S
V9     V27    10.0   1_465     S
V9     V23    10.0   1_465     S
V9     V15    10.0   1_565     S
V9     V17    10.0   1_565     S
V9     V4    10.0   1_455     S
V10     V28    10.0   1_465     S
V10     V24    10.0   1_465     S
V10     V16    10.0   1_565     S
V10     V18    10.0   1_565     S
V10     V1    10.0   1_556     S
V10     V3    10.0   1_456     S
V11     V21    10.0   .     S
V11     V31    10.0   .     S
V11     V7    10.0   1_665     S
V11     V13    10.0   1_655     S
V11     V19    10.0   1_655     S
V11     V29    10.0   1_565     S
V11     V25    10.0   .     S
V12     V22    10.0   .     S
V12     V32    10.0   .     S
V12     V8    10.0   1_665     S
V12     V14    10.0   1_655     S
V12     V20    10.0   1_655     S
V12     V30    10.0   1_565     S
V12     V26    10.0   .     S
V13     V16    10.0   1_554     S
V13     V19    10.0   .     S
V13     V28    10.0   1_454     S
V13     V3    10.0   1_455     S
V13     V11    10.0   1_455     S
V14     V15    10.0   .     S
V14     V20    10.0   .     S
V14     V27    10.0   1_455     S
V14     V4    10.0   1_455     S
V14     V12    10.0   1_455     S
V15     V21    10.0   .     S
V15     V9    10.0   1_545     S
V15     V25    10.0   1_545     S
V15     V27    10.0   .     S
V16     V22    10.0   .     S
V16     V13    10.0   1_556     S
V16     V7    10.0   1_556     S
V16     V10    10.0   1_545     S
V16     V26    10.0   1_545     S
V16     V28    10.0   .     S
V17     V31    10.0   .     S
V17     V21    10.0   .     S
V17     V9    10.0   1_545     S
V17     V23    10.0   1_455     S
V17     V29    10.0   .     S
V17     V25    10.0   1_545     S
V18     V32    10.0   .     S
V18     V22    10.0   .     S
V18     V10    10.0   1_545     S
V18     V24    10.0   1_455     S
V18     V30    10.0   .     S
V18     V26    10.0   1_545     S
V19     V31    10.0   .     S
V19     V21    10.0   .     S
V19     V7    10.0   1_565     S
V19     V11    10.0   1_455     S
V19     V25    10.0   .     S
V19     V29    10.0   1_565     S
V20     V32    10.0   .     S
V20     V22    10.0   .     S
V20     V8    10.0   1_565     S
V20     V12    10.0   1_455     S
V20     V26    10.0   .     S
V20     V30    10.0   1_565     S
V21     V25    10.0   .     S
V21     V23    10.0   .     S
V21     V27    10.0   .     S
V22     V26    10.0   .     S
V22     V24    10.0   .     S
V22     V28    10.0   .     S
V23     V9    10.0   1_645     S
V23     V5    10.0   1_655     S
V23     V17    10.0   1_655     S
V23     V31    10.0   .     S
V23     V29    10.0   .     S
V23     V25    10.0   1_545     S
V24     V10    10.0   1_645     S
V24     V6    10.0   1_655     S
V24     V18    10.0   1_655     S
V24     V32    10.0   .     S
V24     V30    10.0   .     S
V24     V26    10.0   1_545     S
V25     V17    10.0   1_565     S
V25     V15    10.0   1_565     S
V25     V23    10.0   1_565     S
V25     V27    10.0   1_565     S
V26     V18    10.0   1_565     S
V26     V16    10.0   1_565     S
V26     V24    10.0   1_565     S
V26     V28    10.0   1_565     S
V27     V8    10.0   1_655     S
V27     V9    10.0   1_645     S
V27     V14    10.0   1_655     S
V27     V5    10.0   1_655     S
V27     V25    10.0   1_545     S
V28     V7    10.0   1_656     S
V28     V10    10.0   1_645     S
V28     V13    10.0   1_656     S
V28     V6    10.0   1_655     S
V28     V26    10.0   1_545     S
V29     V3    10.0   1_545     S
V29     V11    10.0   1_545     S
V29     V19    10.0   1_545     S
V29     V1    10.0   1_545     S
V29     V31    10.0   .     S
V30     V4    10.0   1_545     S
V30     V12    10.0   1_545     S
V30     V20    10.0   1_545     S
V30     V2    10.0   1_545     S
V30     V32    10.0   .     S
