data_xff
_audit_creation_date              2019-12-31
_audit_creation_method            'Pymatgen'
_symmetry_space_group_name_H-M    'P1'
_symmetry_Int_Tables_number       1
loop_
_symmetry_equiv_pos_as_xyz
  x,y,z
_cell_length_a                    38.5554
_cell_length_b                    38.5554
_cell_length_c                    36.5199
_cell_angle_alpha                 90.0
_cell_angle_beta                 90.0
_cell_angle_gamma                 90.0
loop_
_atom_site_label
_atom_site_type_symbol
_atom_site_fract_x
_atom_site_fract_y
_atom_site_fract_z
V1     V     0.1195   0.1754   0.4635
V2     V     0.1195   0.6754   0.4635
V3     V     0.6195   0.1754   0.4635
V4     V     0.6195   0.6754   0.4635
V5     V     0.3805   0.0746   0.4635
V6     V     0.3805   0.5746   0.4635
V7     V     0.8805   0.0746   0.4635
V8     V     0.8805   0.5746   0.4635
V9     V     0.1195   0.4254   0.5365
V10     V     0.1195   0.9254   0.5365
V11     V     0.6195   0.4254   0.5365
V12     V     0.6195   0.9254   0.5365
V13     V     0.3805   0.3246   0.5365
V14     V     0.3805   0.8246   0.5365
V15     V     0.8805   0.3246   0.5365
V16     V     0.8805   0.8246   0.5365
V17     V     0.1996   0.4945   0.2865
V18     V     0.1996   0.9945   0.2865
V19     V     0.6996   0.4945   0.2865
V20     V     0.6996   0.9945   0.2865
V21     V     0.3004   0.2555   0.2865
V22     V     0.3004   0.7555   0.2865
V23     V     0.8004   0.2555   0.2865
V24     V     0.8004   0.7555   0.2865
V25     V     0.0504   0.2555   0.2135
V26     V     0.0504   0.7555   0.2135
V27     V     0.5504   0.2555   0.2135
V28     V     0.5504   0.7555   0.2135
V29     V     0.4496   0.4945   0.2135
V30     V     0.4496   0.9945   0.2135
V31     V     0.9496   0.4945   0.2135
V32     V     0.9496   0.9945   0.2135
V33     V     0.3695   0.4254   0.9635
V34     V     0.3695   0.9254   0.9635
V35     V     0.8695   0.4254   0.9635
V36     V     0.8695   0.9254   0.9635
V37     V     0.1305   0.3246   0.9635
V38     V     0.1305   0.8246   0.9635
V39     V     0.6305   0.3246   0.9635
V40     V     0.6305   0.8246   0.9635
V41     V     0.1305   0.0746   0.0365
V42     V     0.1305   0.5746   0.0365
V43     V     0.6305   0.0746   0.0365
V44     V     0.6305   0.5746   0.0365
V45     V     0.3695   0.1754   0.0365
V46     V     0.3695   0.6754   0.0365
V47     V     0.8695   0.1754   0.0365
V48     V     0.8695   0.6754   0.0365
V49     V     0.0504   0.0055   0.7865
V50     V     0.0504   0.5055   0.7865
V51     V     0.5504   0.0055   0.7865
V52     V     0.5504   0.5055   0.7865
V53     V     0.4496   0.2445   0.7865
V54     V     0.4496   0.7445   0.7865
V55     V     0.9496   0.2445   0.7865
V56     V     0.9496   0.7445   0.7865
V57     V     0.3004   0.0055   0.7135
V58     V     0.3004   0.5055   0.7135
V59     V     0.8004   0.0055   0.7135
V60     V     0.8004   0.5055   0.7135
V61     V     0.1996   0.2445   0.7135
V62     V     0.1996   0.7445   0.7135
V63     V     0.6996   0.2445   0.7135
V64     V     0.6996   0.7445   0.7135
loop_
_geom_bond_atom_site_label_1
_geom_bond_atom_site_label_2
_geom_bond_distance
_geom_bond_site_symmetry_2
_ccdc_geom_bond_type
V1     V7    10.0   1_455     S
V1     V25    10.0   .     S
V1     V9    10.0   .     S
V1     V21    10.0   .     S
V1     V10    10.0   1_545     S
V1     V18    10.0   1_545     S
V1     V61    10.0   .     S
V2     V8    10.0   1_455     S
V2     V26    10.0   .     S
V2     V10    10.0   .     S
V2     V22    10.0   .     S
V2     V9    10.0   .     S
V2     V17    10.0   .     S
V2     V62    10.0   .     S
V3     V5    10.0   .     S
V3     V27    10.0   .     S
V3     V11    10.0   .     S
V3     V23    10.0   .     S
V3     V12    10.0   1_545     S
V3     V20    10.0   1_545     S
V3     V63    10.0   .     S
V4     V6    10.0   .     S
V4     V28    10.0   .     S
V4     V12    10.0   .     S
V4     V24    10.0   .     S
V4     V11    10.0   .     S
V4     V19    10.0   .     S
V4     V64    10.0   .     S
V5     V30    10.0   1_545     S
V5     V14    10.0   1_545     S
V5     V13    10.0   .     S
V5     V18    10.0   1_545     S
V5     V21    10.0   .     S
V5     V57    10.0   .     S
V6     V29    10.0   .     S
V6     V13    10.0   .     S
V6     V14    10.0   .     S
V6     V17    10.0   .     S
V6     V22    10.0   .     S
V6     V58    10.0   .     S
V7     V1    10.0   1_655     S
V7     V32    10.0   1_545     S
V7     V16    10.0   1_545     S
V7     V15    10.0   .     S
V7     V20    10.0   1_545     S
V7     V23    10.0   .     S
V7     V59    10.0   .     S
V8     V2    10.0   1_655     S
V8     V31    10.0   .     S
V8     V15    10.0   .     S
V8     V16    10.0   .     S
V8     V19    10.0   .     S
V8     V24    10.0   .     S
V8     V60    10.0   .     S
V9     V15    10.0   1_455     S
V9     V50    10.0   .     S
V9     V58    10.0   .     S
V9     V17    10.0   .     S
V9     V61    10.0   .     S
V10     V16    10.0   1_455     S
V10     V49    10.0   1_565     S
V10     V1    10.0   1_565     S
V10     V57    10.0   1_565     S
V10     V18    10.0   .     S
V10     V62    10.0   .     S
V11     V13    10.0   .     S
V11     V52    10.0   .     S
V11     V60    10.0   .     S
V11     V19    10.0   .     S
V11     V63    10.0   .     S
V12     V14    10.0   .     S
V12     V51    10.0   1_565     S
V12     V3    10.0   1_565     S
V12     V59    10.0   1_565     S
V12     V20    10.0   .     S
V12     V64    10.0   .     S
V13     V53    10.0   .     S
V13     V61    10.0   .     S
V13     V21    10.0   .     S
V13     V58    10.0   .     S
V14     V54    10.0   .     S
V14     V5    10.0   1_565     S
V14     V62    10.0   .     S
V14     V22    10.0   .     S
V14     V57    10.0   1_565     S
V15     V9    10.0   1_655     S
V15     V55    10.0   .     S
V15     V63    10.0   .     S
V15     V23    10.0   .     S
V15     V60    10.0   .     S
V16     V10    10.0   1_655     S
V16     V56    10.0   .     S
V16     V7    10.0   1_565     S
V16     V64    10.0   .     S
V16     V24    10.0   .     S
V16     V59    10.0   1_565     S
V17     V21    10.0   .     S
V17     V29    10.0   .     S
V17     V31    10.0   1_455     S
V17     V42    10.0   .     S
V18     V5    10.0   1_565     S
V18     V22    10.0   .     S
V18     V30    10.0   .     S
V18     V1    10.0   1_565     S
V18     V32    10.0   1_455     S
V18     V41    10.0   1_565     S
V19     V23    10.0   .     S
V19     V31    10.0   .     S
V19     V29    10.0   .     S
V19     V44    10.0   .     S
V20     V7    10.0   1_565     S
V20     V24    10.0   .     S
V20     V32    10.0   .     S
V20     V3    10.0   1_565     S
V20     V30    10.0   .     S
V20     V43    10.0   1_565     S
V21     V27    10.0   .     S
V21     V25    10.0   .     S
V21     V45    10.0   .     S
V22     V28    10.0   .     S
V22     V26    10.0   .     S
V22     V46    10.0   .     S
V23     V25    10.0   1_655     S
V23     V27    10.0   .     S
V23     V47    10.0   .     S
V24     V26    10.0   1_655     S
V24     V28    10.0   .     S
V24     V48    10.0   .     S
V25     V23    10.0   1_455     S
V25     V31    10.0   1_455     S
V25     V37    10.0   1_554     S
V25     V41    10.0   .     S
V25     V47    10.0   1_455     S
V26     V24    10.0   1_455     S
V26     V32    10.0   1_455     S
V26     V38    10.0   1_554     S
V26     V42    10.0   .     S
V26     V48    10.0   1_455     S
V27     V29    10.0   .     S
V27     V39    10.0   1_554     S
V27     V43    10.0   .     S
V27     V45    10.0   .     S
V28     V30    10.0   .     S
V28     V40    10.0   1_554     S
V28     V44    10.0   .     S
V28     V46    10.0   .     S
V29     V33    10.0   1_554     S
V29     V46    10.0   .     S
V29     V44    10.0   .     S
V30     V5    10.0   1_565     S
V30     V34    10.0   1_554     S
V30     V45    10.0   1_565     S
V30     V43    10.0   1_565     S
V31     V25    10.0   1_655     S
V31     V35    10.0   1_554     S
V31     V48    10.0   .     S
V31     V17    10.0   1_655     S
V31     V42    10.0   1_655     S
V32     V7    10.0   1_565     S
V32     V26    10.0   1_655     S
V32     V36    10.0   1_554     S
V32     V47    10.0   1_565     S
V32     V18    10.0   1_655     S
V32     V41    10.0   1_665     S
V33     V29    10.0   1_556     S
V33     V37    10.0   .     S
V33     V58    10.0   .     S
V33     V45    10.0   1_556     S
V33     V52    10.0   .     S
V33     V46    10.0   1_556     S
V33     V53    10.0   .     S
V34     V30    10.0   1_556     S
V34     V38    10.0   .     S
V34     V57    10.0   1_565     S
V34     V46    10.0   1_556     S
V34     V51    10.0   1_565     S
V34     V45    10.0   1_566     S
V34     V54    10.0   .     S
V35     V31    10.0   1_556     S
V35     V39    10.0   .     S
V35     V60    10.0   .     S
V35     V47    10.0   1_556     S
V35     V50    10.0   1_655     S
V35     V48    10.0   1_556     S
V35     V55    10.0   .     S
V36     V32    10.0   1_556     S
V36     V40    10.0   .     S
V36     V59    10.0   1_565     S
V36     V48    10.0   1_556     S
V36     V49    10.0   1_665     S
V36     V47    10.0   1_566     S
V36     V56    10.0   .     S
V37     V25    10.0   1_556     S
V37     V61    10.0   .     S
V37     V55    10.0   1_455     S
V37     V42    10.0   1_556     S
V37     V41    10.0   1_556     S
V37     V50    10.0   .     S
V38     V26    10.0   1_556     S
V38     V62    10.0   .     S
V38     V56    10.0   1_455     S
V38     V41    10.0   1_566     S
V38     V42    10.0   1_556     S
V38     V49    10.0   1_565     S
V39     V27    10.0   1_556     S
V39     V63    10.0   .     S
V39     V53    10.0   .     S
V39     V44    10.0   1_556     S
V39     V43    10.0   1_556     S
V39     V52    10.0   .     S
V40     V28    10.0   1_556     S
V40     V64    10.0   .     S
V40     V54    10.0   .     S
V40     V43    10.0   1_566     S
V40     V44    10.0   1_556     S
V40     V51    10.0   1_565     S
V41     V45    10.0   .     S
V41     V18    10.0   1_545     S
V41     V32    10.0   1_445     S
V41     V38    10.0   1_544     S
V41     V37    10.0   1_554     S
V41     V49    10.0   1_554     S
V42     V46    10.0   .     S
V42     V31    10.0   1_455     S
V42     V37    10.0   1_554     S
V42     V38    10.0   1_554     S
V42     V50    10.0   1_554     S
V43     V47    10.0   .     S
V43     V20    10.0   1_545     S
V43     V30    10.0   1_545     S
V43     V40    10.0   1_544     S
V43     V39    10.0   1_554     S
V43     V51    10.0   1_554     S
V44     V48    10.0   .     S
V44     V39    10.0   1_554     S
V44     V40    10.0   1_554     S
V44     V52    10.0   1_554     S
V45     V30    10.0   1_545     S
V45     V33    10.0   1_554     S
V45     V34    10.0   1_544     S
V45     V53    10.0   1_554     S
V46     V34    10.0   1_554     S
V46     V33    10.0   1_554     S
V46     V54    10.0   1_554     S
V47     V32    10.0   1_545     S
V47     V35    10.0   1_554     S
V47     V36    10.0   1_544     S
V47     V25    10.0   1_655     S
V47     V55    10.0   1_554     S
V48     V36    10.0   1_554     S
V48     V35    10.0   1_554     S
V48     V26    10.0   1_655     S
V48     V56    10.0   1_554     S
V49     V10    10.0   1_545     S
V49     V36    10.0   1_445     S
V49     V55    10.0   1_455     S
V49     V41    10.0   1_556     S
V49     V38    10.0   1_545     S
V49     V57    10.0   .     S
V49     V59    10.0   1_455     S
V50     V35    10.0   1_455     S
V50     V56    10.0   1_455     S
V50     V42    10.0   1_556     S
V50     V58    10.0   .     S
V50     V60    10.0   1_455     S
V51     V12    10.0   1_545     S
V51     V34    10.0   1_545     S
V51     V53    10.0   .     S
V51     V43    10.0   1_556     S
V51     V40    10.0   1_545     S
V51     V59    10.0   .     S
V51     V57    10.0   .     S
V52     V54    10.0   .     S
V52     V44    10.0   1_556     S
V52     V60    10.0   .     S
V52     V58    10.0   .     S
V53     V45    10.0   1_556     S
V53     V61    10.0   .     S
V53     V63    10.0   .     S
V54     V46    10.0   1_556     S
V54     V62    10.0   .     S
V54     V64    10.0   .     S
V55     V37    10.0   1_655     S
V55     V49    10.0   1_655     S
V55     V47    10.0   1_556     S
V55     V63    10.0   .     S
V55     V61    10.0   1_655     S
V56     V38    10.0   1_655     S
V56     V50    10.0   1_655     S
V56     V48    10.0   1_556     S
V56     V64    10.0   .     S
V56     V62    10.0   1_655     S
V57     V10    10.0   1_545     S
V57     V34    10.0   1_545     S
V57     V61    10.0   .     S
V57     V14    10.0   1_545     S
V58     V62    10.0   .     S
V59     V12    10.0   1_545     S
V59     V36    10.0   1_545     S
V59     V63    10.0   .     S
V59     V49    10.0   1_655     S
V59     V16    10.0   1_545     S
V60     V64    10.0   .     S
V60     V50    10.0   1_655     S
V61     V55    10.0   1_455     S
V62     V56    10.0   1_455     S
