data_xfg
_audit_creation_date              2019-12-31
_audit_creation_method            'Pymatgen'
_symmetry_space_group_name_H-M    'P1'
_symmetry_Int_Tables_number       1
loop_
_symmetry_equiv_pos_as_xyz
  x,y,z
_cell_length_a                    36.956
_cell_length_b                    36.956
_cell_length_c                    38.7119
_cell_angle_alpha                 90.0
_cell_angle_beta                 90.0
_cell_angle_gamma                 90.0
loop_
_atom_site_label
_atom_site_type_symbol
_atom_site_fract_x
_atom_site_fract_y
_atom_site_fract_z
V1     V     0.3277   0.2593   0.2994
V2     V     0.3277   0.7593   0.2994
V3     V     0.8277   0.2593   0.2994
V4     V     0.8277   0.7593   0.2994
V5     V     0.4223   0.4907   0.2006
V6     V     0.4223   0.9907   0.2006
V7     V     0.9223   0.4907   0.2006
V8     V     0.9223   0.9907   0.2006
V9     V     0.3657   0.4527   0.9506
V10     V     0.3657   0.9527   0.9506
V11     V     0.8657   0.4527   0.9506
V12     V     0.8657   0.9527   0.9506
V13     V     0.3843   0.0473   0.4506
V14     V     0.3843   0.5473   0.4506
V15     V     0.8843   0.0473   0.4506
V16     V     0.8843   0.5473   0.4506
V17     V     0.3277   0.0093   0.7006
V18     V     0.3277   0.5093   0.7006
V19     V     0.8277   0.0093   0.7006
V20     V     0.8277   0.5093   0.7006
V21     V     0.3843   0.2973   0.5494
V22     V     0.3843   0.7973   0.5494
V23     V     0.8843   0.2973   0.5494
V24     V     0.8843   0.7973   0.5494
V25     V     0.4223   0.2407   0.7994
V26     V     0.4223   0.7407   0.7994
V27     V     0.9223   0.2407   0.7994
V28     V     0.9223   0.7407   0.7994
V29     V     0.0777   0.2593   0.2006
V30     V     0.0777   0.7593   0.2006
V31     V     0.5777   0.2593   0.2006
V32     V     0.5777   0.7593   0.2006
V33     V     0.3657   0.2027   0.0494
V34     V     0.3657   0.7027   0.0494
V35     V     0.8657   0.2027   0.0494
V36     V     0.8657   0.7027   0.0494
V37     V     0.1723   0.4907   0.2994
V38     V     0.1723   0.9907   0.2994
V39     V     0.6723   0.4907   0.2994
V40     V     0.6723   0.9907   0.2994
V41     V     0.1157   0.4527   0.5494
V42     V     0.1157   0.9527   0.5494
V43     V     0.6157   0.4527   0.5494
V44     V     0.6157   0.9527   0.5494
V45     V     0.1157   0.2027   0.4506
V46     V     0.1157   0.7027   0.4506
V47     V     0.6157   0.2027   0.4506
V48     V     0.6157   0.7027   0.4506
V49     V     0.1723   0.2407   0.7006
V50     V     0.1723   0.7407   0.7006
V51     V     0.6723   0.2407   0.7006
V52     V     0.6723   0.7407   0.7006
V53     V     0.1343   0.2973   0.9506
V54     V     0.1343   0.7973   0.9506
V55     V     0.6343   0.2973   0.9506
V56     V     0.6343   0.7973   0.9506
V57     V     0.1343   0.0473   0.0494
V58     V     0.1343   0.5473   0.0494
V59     V     0.6343   0.0473   0.0494
V60     V     0.6343   0.5473   0.0494
V61     V     0.0777   0.0093   0.7994
V62     V     0.0777   0.5093   0.7994
V63     V     0.5777   0.0093   0.7994
V64     V     0.5777   0.5093   0.7994
loop_
_geom_bond_atom_site_label_1
_geom_bond_atom_site_label_2
_geom_bond_distance
_geom_bond_site_symmetry_2
_ccdc_geom_bond_type
V1     V13    10.0   .     S
V1     V33    10.0   .     S
V1     V21    10.0   .     S
V1     V31    10.0   .     S
V1     V45    10.0   .     S
V1     V29    10.0   .     S
V1     V5    10.0   .     S
V2     V14    10.0   .     S
V2     V34    10.0   .     S
V2     V22    10.0   .     S
V2     V32    10.0   .     S
V2     V46    10.0   .     S
V2     V30    10.0   .     S
V2     V6    10.0   .     S
V3     V15    10.0   .     S
V3     V35    10.0   .     S
V3     V23    10.0   .     S
V3     V29    10.0   1_655     S
V3     V47    10.0   .     S
V3     V31    10.0   .     S
V3     V7    10.0   .     S
V4     V16    10.0   .     S
V4     V36    10.0   .     S
V4     V24    10.0   .     S
V4     V30    10.0   1_655     S
V4     V48    10.0   .     S
V4     V32    10.0   .     S
V4     V8    10.0   .     S
V5     V34    10.0   .     S
V5     V14    10.0   .     S
V5     V9    10.0   1_554     S
V5     V37    10.0   .     S
V5     V60    10.0   .     S
V5     V39    10.0   .     S
V6     V33    10.0   1_565     S
V6     V13    10.0   1_565     S
V6     V10    10.0   1_554     S
V6     V38    10.0   .     S
V6     V59    10.0   1_565     S
V6     V40    10.0   .     S
V7     V36    10.0   .     S
V7     V16    10.0   .     S
V7     V11    10.0   1_554     S
V7     V39    10.0   .     S
V7     V58    10.0   1_655     S
V7     V37    10.0   1_655     S
V8     V35    10.0   1_565     S
V8     V15    10.0   1_565     S
V8     V12    10.0   1_554     S
V8     V40    10.0   .     S
V8     V57    10.0   1_665     S
V8     V38    10.0   1_655     S
V9     V34    10.0   1_556     S
V9     V64    10.0   .     S
V9     V5    10.0   1_556     S
V9     V18    10.0   .     S
V9     V25    10.0   .     S
V9     V33    10.0   1_556     S
V9     V58    10.0   1_556     S
V10     V33    10.0   1_566     S
V10     V63    10.0   1_565     S
V10     V6    10.0   1_556     S
V10     V17    10.0   1_565     S
V10     V26    10.0   .     S
V10     V34    10.0   1_556     S
V10     V57    10.0   1_566     S
V11     V36    10.0   1_556     S
V11     V62    10.0   1_655     S
V11     V7    10.0   1_556     S
V11     V20    10.0   .     S
V11     V27    10.0   .     S
V11     V35    10.0   1_556     S
V11     V60    10.0   1_556     S
V12     V35    10.0   1_566     S
V12     V61    10.0   1_665     S
V12     V8    10.0   1_556     S
V12     V19    10.0   1_565     S
V12     V28    10.0   .     S
V12     V36    10.0   1_556     S
V12     V59    10.0   1_566     S
V13     V21    10.0   .     S
V13     V6    10.0   1_545     S
V13     V38    10.0   1_545     S
V13     V17    10.0   .     S
V13     V22    10.0   1_545     S
V13     V44    10.0   1_545     S
V14     V22    10.0   .     S
V14     V37    10.0   .     S
V14     V18    10.0   .     S
V14     V21    10.0   .     S
V14     V43    10.0   .     S
V15     V23    10.0   .     S
V15     V8    10.0   1_545     S
V15     V40    10.0   1_545     S
V15     V19    10.0   .     S
V15     V24    10.0   1_545     S
V15     V42    10.0   1_645     S
V16     V24    10.0   .     S
V16     V39    10.0   .     S
V16     V20    10.0   .     S
V16     V23    10.0   .     S
V16     V41    10.0   1_655     S
V17     V63    10.0   .     S
V17     V22    10.0   1_545     S
V17     V10    10.0   1_545     S
V17     V42    10.0   1_545     S
V17     V61    10.0   .     S
V17     V25    10.0   .     S
V18     V64    10.0   .     S
V18     V21    10.0   .     S
V18     V41    10.0   .     S
V18     V62    10.0   .     S
V18     V26    10.0   .     S
V19     V61    10.0   1_655     S
V19     V24    10.0   1_545     S
V19     V12    10.0   1_545     S
V19     V44    10.0   1_545     S
V19     V63    10.0   .     S
V19     V27    10.0   .     S
V20     V62    10.0   1_655     S
V20     V23    10.0   .     S
V20     V43    10.0   .     S
V20     V64    10.0   .     S
V20     V28    10.0   .     S
V21     V49    10.0   .     S
V21     V25    10.0   .     S
V21     V47    10.0   .     S
V22     V17    10.0   1_565     S
V22     V13    10.0   1_565     S
V22     V50    10.0   .     S
V22     V26    10.0   .     S
V22     V48    10.0   .     S
V23     V51    10.0   .     S
V23     V27    10.0   .     S
V23     V45    10.0   1_655     S
V24     V19    10.0   1_565     S
V24     V15    10.0   1_565     S
V24     V52    10.0   .     S
V24     V28    10.0   .     S
V24     V46    10.0   1_655     S
V25     V49    10.0   .     S
V25     V33    10.0   1_556     S
V25     V55    10.0   .     S
V25     V51    10.0   .     S
V26     V50    10.0   .     S
V26     V34    10.0   1_556     S
V26     V56    10.0   .     S
V26     V52    10.0   .     S
V27     V51    10.0   .     S
V27     V35    10.0   1_556     S
V27     V53    10.0   1_655     S
V27     V49    10.0   1_655     S
V28     V52    10.0   .     S
V28     V36    10.0   1_556     S
V28     V54    10.0   1_655     S
V28     V50    10.0   1_655     S
V29     V57    10.0   .     S
V29     V45    10.0   .     S
V29     V35    10.0   1_455     S
V29     V3    10.0   1_455     S
V29     V53    10.0   1_554     S
V29     V37    10.0   .     S
V30     V58    10.0   .     S
V30     V46    10.0   .     S
V30     V36    10.0   1_455     S
V30     V4    10.0   1_455     S
V30     V54    10.0   1_554     S
V30     V38    10.0   .     S
V31     V59    10.0   .     S
V31     V47    10.0   .     S
V31     V33    10.0   .     S
V31     V55    10.0   1_554     S
V31     V39    10.0   .     S
V32     V60    10.0   .     S
V32     V48    10.0   .     S
V32     V34    10.0   .     S
V32     V56    10.0   1_554     S
V32     V40    10.0   .     S
V33     V6    10.0   1_545     S
V33     V10    10.0   1_544     S
V33     V9    10.0   1_554     S
V33     V25    10.0   1_554     S
V33     V53    10.0   1_554     S
V34     V9    10.0   1_554     S
V34     V10    10.0   1_554     S
V34     V26    10.0   1_554     S
V34     V54    10.0   1_554     S
V35     V8    10.0   1_545     S
V35     V12    10.0   1_544     S
V35     V11    10.0   1_554     S
V35     V29    10.0   1_655     S
V35     V27    10.0   1_554     S
V35     V55    10.0   1_554     S
V36     V11    10.0   1_554     S
V36     V12    10.0   1_554     S
V36     V30    10.0   1_655     S
V36     V28    10.0   1_554     S
V36     V56    10.0   1_554     S
V37     V46    10.0   .     S
V37     V58    10.0   .     S
V37     V41    10.0   .     S
V37     V7    10.0   1_455     S
V38     V13    10.0   1_565     S
V38     V45    10.0   1_565     S
V38     V57    10.0   1_565     S
V38     V42    10.0   .     S
V38     V8    10.0   1_455     S
V39     V48    10.0   .     S
V39     V60    10.0   .     S
V39     V43    10.0   .     S
V40     V15    10.0   1_565     S
V40     V47    10.0   1_565     S
V40     V59    10.0   1_565     S
V40     V44    10.0   .     S
V41     V46    10.0   .     S
V41     V49    10.0   .     S
V41     V45    10.0   .     S
V41     V62    10.0   .     S
V41     V16    10.0   1_455     S
V42     V45    10.0   1_565     S
V42     V17    10.0   1_565     S
V42     V50    10.0   .     S
V42     V46    10.0   .     S
V42     V61    10.0   1_565     S
V42     V15    10.0   1_465     S
V43     V48    10.0   .     S
V43     V51    10.0   .     S
V43     V47    10.0   .     S
V43     V64    10.0   .     S
V44     V47    10.0   1_565     S
V44     V19    10.0   1_565     S
V44     V52    10.0   .     S
V44     V48    10.0   .     S
V44     V63    10.0   1_565     S
V44     V13    10.0   1_565     S
V45     V38    10.0   1_545     S
V45     V42    10.0   1_545     S
V45     V49    10.0   .     S
V45     V23    10.0   1_455     S
V46     V50    10.0   .     S
V46     V24    10.0   1_455     S
V47     V40    10.0   1_545     S
V47     V44    10.0   1_545     S
V47     V51    10.0   .     S
V48     V52    10.0   .     S
V49     V53    10.0   .     S
V49     V27    10.0   1_455     S
V49     V61    10.0   .     S
V50     V54    10.0   .     S
V50     V28    10.0   1_455     S
V50     V62    10.0   .     S
V51     V55    10.0   .     S
V51     V63    10.0   .     S
V52     V56    10.0   .     S
V52     V64    10.0   .     S
V53     V57    10.0   1_556     S
V53     V27    10.0   1_455     S
V53     V29    10.0   1_556     S
V53     V62    10.0   .     S
V53     V58    10.0   1_556     S
V53     V33    10.0   1_556     S
V54     V58    10.0   1_556     S
V54     V28    10.0   1_455     S
V54     V30    10.0   1_556     S
V54     V61    10.0   1_565     S
V54     V57    10.0   1_566     S
V54     V34    10.0   1_556     S
V55     V59    10.0   1_556     S
V55     V31    10.0   1_556     S
V55     V64    10.0   .     S
V55     V60    10.0   1_556     S
V55     V35    10.0   1_556     S
V56     V60    10.0   1_556     S
V56     V32    10.0   1_556     S
V56     V63    10.0   1_565     S
V56     V59    10.0   1_566     S
V56     V36    10.0   1_556     S
V57     V53    10.0   1_554     S
V57     V38    10.0   1_545     S
V57     V8    10.0   1_445     S
V57     V61    10.0   1_554     S
V57     V54    10.0   1_544     S
V57     V10    10.0   1_544     S
V58     V54    10.0   1_554     S
V58     V7    10.0   1_455     S
V58     V62    10.0   1_554     S
V58     V53    10.0   1_554     S
V58     V9    10.0   1_554     S
V59     V55    10.0   1_554     S
V59     V40    10.0   1_545     S
V59     V6    10.0   1_545     S
V59     V63    10.0   1_554     S
V59     V56    10.0   1_544     S
V59     V12    10.0   1_544     S
V60     V56    10.0   1_554     S
V60     V64    10.0   1_554     S
V60     V55    10.0   1_554     S
V60     V11    10.0   1_554     S
V61     V12    10.0   1_445     S
V61     V19    10.0   1_455     S
V61     V57    10.0   1_556     S
V61     V54    10.0   1_545     S
V61     V42    10.0   1_545     S
V62     V11    10.0   1_455     S
V62     V20    10.0   1_455     S
V62     V58    10.0   1_556     S
V63     V10    10.0   1_545     S
V63     V59    10.0   1_556     S
V63     V56    10.0   1_545     S
V63     V44    10.0   1_545     S
V64     V60    10.0   1_556     S
