data_xfi
_audit_creation_date              2019-12-31
_audit_creation_method            'Pymatgen'
_symmetry_space_group_name_H-M    'P1'
_symmetry_Int_Tables_number       1
loop_
_symmetry_equiv_pos_as_xyz
  x,y,z
_cell_length_a                    37.9787
_cell_length_b                    37.9787
_cell_length_c                    30.0
_cell_angle_alpha                 90.0
_cell_angle_beta                 90.0
_cell_angle_gamma                 90.0
loop_
_atom_site_label
_atom_site_type_symbol
_atom_site_fract_x
_atom_site_fract_y
_atom_site_fract_z
V1     V     0.1183   0.864   0.125
V2     V     0.1183   0.864   0.4583
V3     V     0.1183   0.864   0.7917
V4     V     0.1183   0.636   0.2917
V5     V     0.1183   0.636   0.625
V6     V     0.1183   0.636   0.9583
V7     V     0.3816   0.864   0.125
V8     V     0.3816   0.864   0.4583
V9     V     0.3816   0.864   0.7917
V10     V     0.3816   0.636   0.2917
V11     V     0.3816   0.636   0.625
V12     V     0.3816   0.636   0.9583
V13     V     0.864   0.8817   0.2083
V14     V     0.864   0.8817   0.5417
V15     V     0.864   0.8817   0.875
V16     V     0.636   0.8817   0.0417
V17     V     0.636   0.8817   0.375
V18     V     0.636   0.8817   0.7083
V19     V     0.864   0.6184   0.2083
V20     V     0.864   0.6184   0.5417
V21     V     0.864   0.6184   0.875
V22     V     0.636   0.6184   0.0417
V23     V     0.636   0.6184   0.375
V24     V     0.636   0.6184   0.7083
V25     V     0.8817   0.364   0.2917
V26     V     0.8817   0.364   0.625
V27     V     0.8817   0.364   0.9583
V28     V     0.8817   0.136   0.125
V29     V     0.8817   0.136   0.4583
V30     V     0.8817   0.136   0.7917
V31     V     0.6184   0.364   0.2917
V32     V     0.6184   0.364   0.625
V33     V     0.6184   0.364   0.9583
V34     V     0.6184   0.136   0.125
V35     V     0.6184   0.136   0.4583
V36     V     0.6184   0.136   0.7917
V37     V     0.364   0.1183   0.0417
V38     V     0.364   0.1183   0.375
V39     V     0.364   0.1183   0.7083
V40     V     0.136   0.1183   0.2083
V41     V     0.136   0.1183   0.5417
V42     V     0.136   0.1183   0.875
V43     V     0.364   0.3816   0.0417
V44     V     0.364   0.3816   0.375
V45     V     0.364   0.3816   0.7083
V46     V     0.136   0.3816   0.2083
V47     V     0.136   0.3816   0.5417
V48     V     0.136   0.3816   0.875
loop_
_geom_bond_atom_site_label_1
_geom_bond_atom_site_label_2
_geom_bond_distance
_geom_bond_site_symmetry_2
_ccdc_geom_bond_type
V1     V4    10.0   .     S
V1     V2    10.0   .     S
V1     V3    10.0   1_554     S
V1     V6    10.0   1_554     S
V1     V7    10.0   .     S
V1     V40    10.0   1_565     S
V1     V13    10.0   1_455     S
V2     V5    10.0   .     S
V2     V3    10.0   .     S
V2     V4    10.0   .     S
V2     V8    10.0   .     S
V2     V41    10.0   1_565     S
V2     V14    10.0   1_455     S
V3     V6    10.0   .     S
V3     V1    10.0   1_556     S
V3     V5    10.0   .     S
V3     V9    10.0   .     S
V3     V42    10.0   1_565     S
V3     V15    10.0   1_455     S
V4     V6    10.0   1_554     S
V4     V5    10.0   .     S
V4     V10    10.0   .     S
V4     V46    10.0   .     S
V4     V19    10.0   1_455     S
V5     V6    10.0   .     S
V5     V11    10.0   .     S
V5     V47    10.0   .     S
V5     V20    10.0   1_455     S
V6     V1    10.0   1_556     S
V6     V4    10.0   1_556     S
V6     V12    10.0   .     S
V6     V48    10.0   .     S
V6     V21    10.0   1_455     S
V7     V12    10.0   1_554     S
V7     V8    10.0   .     S
V7     V9    10.0   1_554     S
V7     V10    10.0   .     S
V7     V37    10.0   1_565     S
V7     V16    10.0   .     S
V8     V10    10.0   .     S
V8     V9    10.0   .     S
V8     V11    10.0   .     S
V8     V38    10.0   1_565     S
V8     V17    10.0   .     S
V9     V11    10.0   .     S
V9     V7    10.0   1_556     S
V9     V12    10.0   .     S
V9     V39    10.0   1_565     S
V9     V18    10.0   .     S
V10     V12    10.0   1_554     S
V10     V11    10.0   .     S
V10     V44    10.0   .     S
V10     V23    10.0   .     S
V11     V12    10.0   .     S
V11     V45    10.0   .     S
V11     V24    10.0   .     S
V12     V7    10.0   1_556     S
V12     V10    10.0   1_556     S
V12     V43    10.0   1_556     S
V12     V22    10.0   1_556     S
V13     V16    10.0   .     S
V13     V15    10.0   1_554     S
V13     V14    10.0   .     S
V13     V17    10.0   .     S
V13     V19    10.0   .     S
V13     V28    10.0   1_565     S
V13     V1    10.0   1_655     S
V14     V17    10.0   .     S
V14     V15    10.0   .     S
V14     V18    10.0   .     S
V14     V20    10.0   .     S
V14     V29    10.0   1_565     S
V14     V2    10.0   1_655     S
V15     V18    10.0   .     S
V15     V13    10.0   1_556     S
V15     V16    10.0   1_556     S
V15     V21    10.0   .     S
V15     V30    10.0   1_565     S
V15     V3    10.0   1_655     S
V16     V15    10.0   1_554     S
V16     V17    10.0   .     S
V16     V18    10.0   1_554     S
V16     V22    10.0   .     S
V16     V34    10.0   1_565     S
V17     V18    10.0   .     S
V17     V23    10.0   .     S
V17     V35    10.0   1_565     S
V18     V16    10.0   1_556     S
V18     V24    10.0   .     S
V18     V36    10.0   1_565     S
V19     V23    10.0   .     S
V19     V21    10.0   1_554     S
V19     V20    10.0   .     S
V19     V22    10.0   .     S
V19     V4    10.0   1_655     S
V19     V25    10.0   .     S
V20     V24    10.0   .     S
V20     V21    10.0   .     S
V20     V23    10.0   .     S
V20     V5    10.0   1_655     S
V20     V26    10.0   .     S
V21     V22    10.0   1_556     S
V21     V19    10.0   1_556     S
V21     V24    10.0   .     S
V21     V6    10.0   1_655     S
V21     V27    10.0   .     S
V22     V21    10.0   1_554     S
V22     V23    10.0   .     S
V22     V24    10.0   1_554     S
V22     V33    10.0   1_554     S
V22     V12    10.0   1_554     S
V23     V24    10.0   .     S
V23     V31    10.0   .     S
V24     V22    10.0   1_556     S
V24     V32    10.0   .     S
V25     V28    10.0   .     S
V25     V27    10.0   1_554     S
V25     V26    10.0   .     S
V25     V29    10.0   .     S
V25     V31    10.0   .     S
V25     V46    10.0   1_655     S
V26     V29    10.0   .     S
V26     V27    10.0   .     S
V26     V30    10.0   .     S
V26     V32    10.0   .     S
V26     V47    10.0   1_655     S
V27     V30    10.0   .     S
V27     V25    10.0   1_556     S
V27     V28    10.0   1_556     S
V27     V33    10.0   .     S
V27     V48    10.0   1_655     S
V28     V29    10.0   .     S
V28     V30    10.0   1_554     S
V28     V27    10.0   1_554     S
V28     V34    10.0   .     S
V28     V13    10.0   1_545     S
V28     V40    10.0   1_655     S
V29     V30    10.0   .     S
V29     V35    10.0   .     S
V29     V14    10.0   1_545     S
V29     V41    10.0   1_655     S
V30     V28    10.0   1_556     S
V30     V36    10.0   .     S
V30     V15    10.0   1_545     S
V30     V42    10.0   1_655     S
V31     V35    10.0   .     S
V31     V33    10.0   1_554     S
V31     V32    10.0   .     S
V31     V34    10.0   .     S
V31     V44    10.0   .     S
V32     V36    10.0   .     S
V32     V33    10.0   .     S
V32     V35    10.0   .     S
V32     V45    10.0   .     S
V33     V34    10.0   1_556     S
V33     V31    10.0   1_556     S
V33     V36    10.0   .     S
V33     V43    10.0   1_556     S
V33     V22    10.0   1_556     S
V34     V16    10.0   1_545     S
V34     V33    10.0   1_554     S
V34     V35    10.0   .     S
V34     V36    10.0   1_554     S
V34     V37    10.0   .     S
V35     V17    10.0   1_545     S
V35     V36    10.0   .     S
V35     V38    10.0   .     S
V36     V18    10.0   1_545     S
V36     V34    10.0   1_556     S
V36     V39    10.0   .     S
V37     V7    10.0   1_545     S
V37     V40    10.0   .     S
V37     V38    10.0   .     S
V37     V39    10.0   1_554     S
V37     V42    10.0   1_554     S
V37     V43    10.0   .     S
V38     V8    10.0   1_545     S
V38     V41    10.0   .     S
V38     V39    10.0   .     S
V38     V40    10.0   .     S
V38     V44    10.0   .     S
V39     V9    10.0   1_545     S
V39     V42    10.0   .     S
V39     V37    10.0   1_556     S
V39     V41    10.0   .     S
V39     V45    10.0   .     S
V40     V1    10.0   1_545     S
V40     V42    10.0   1_554     S
V40     V41    10.0   .     S
V40     V46    10.0   .     S
V40     V28    10.0   1_455     S
V41     V2    10.0   1_545     S
V41     V42    10.0   .     S
V41     V47    10.0   .     S
V41     V29    10.0   1_455     S
V42     V3    10.0   1_545     S
V42     V40    10.0   1_556     S
V42     V37    10.0   1_556     S
V42     V48    10.0   .     S
V42     V30    10.0   1_455     S
V43     V12    10.0   1_554     S
V43     V48    10.0   1_554     S
V43     V44    10.0   .     S
V43     V45    10.0   1_554     S
V43     V46    10.0   .     S
V43     V33    10.0   1_554     S
V44     V46    10.0   .     S
V44     V45    10.0   .     S
V44     V47    10.0   .     S
V45     V47    10.0   .     S
V45     V43    10.0   1_556     S
V45     V48    10.0   .     S
V46     V25    10.0   1_455     S
V46     V48    10.0   1_554     S
V46     V47    10.0   .     S
V47     V26    10.0   1_455     S
V47     V48    10.0   .     S
V48     V27    10.0   1_455     S
V48     V43    10.0   1_556     S
V48     V46    10.0   1_556     S
