data_xfm
_audit_creation_date              2019-12-31
_audit_creation_method            'Pymatgen'
_symmetry_space_group_name_H-M    'P1'
_symmetry_Int_Tables_number       1
loop_
_symmetry_equiv_pos_as_xyz
  x,y,z
_cell_length_a                    61.1801
_cell_length_b                    61.1801
_cell_length_c                    30.0
_cell_angle_alpha                 90.0
_cell_angle_beta                 90.0
_cell_angle_gamma                 90.0
loop_
_atom_site_label
_atom_site_type_symbol
_atom_site_fract_x
_atom_site_fract_y
_atom_site_fract_z
V1     V     0.0708   0.5791   0.0417
V2     V     0.0708   0.5791   0.375
V3     V     0.0708   0.5791   0.7083
V4     V     0.1709   0.6792   0.2083
V5     V     0.1709   0.6792   0.5417
V6     V     0.1709   0.6792   0.875
V7     V     0.3291   0.6792   0.125
V8     V     0.3291   0.6792   0.4583
V9     V     0.3291   0.6792   0.7917
V10     V     0.4292   0.5791   0.2917
V11     V     0.4292   0.5791   0.625
V12     V     0.4292   0.5791   0.9583
V13     V     0.3291   0.3208   0.0417
V14     V     0.3291   0.3208   0.375
V15     V     0.3291   0.3208   0.7083
V16     V     0.4292   0.4209   0.2083
V17     V     0.4292   0.4209   0.5417
V18     V     0.4292   0.4209   0.875
V19     V     0.1709   0.3208   0.2917
V20     V     0.1709   0.3208   0.625
V21     V     0.1709   0.3208   0.9583
V22     V     0.0708   0.4209   0.125
V23     V     0.0708   0.4209   0.4583
V24     V     0.0708   0.4209   0.7917
V25     V     0.8291   0.3208   0.125
V26     V     0.8291   0.3208   0.4583
V27     V     0.8291   0.3208   0.7917
V28     V     0.9292   0.4209   0.2917
V29     V     0.9292   0.4209   0.625
V30     V     0.9292   0.4209   0.9583
V31     V     0.9292   0.5791   0.2083
V32     V     0.9292   0.5791   0.5417
V33     V     0.9292   0.5791   0.875
V34     V     0.8291   0.6792   0.0417
V35     V     0.8291   0.6792   0.375
V36     V     0.8291   0.6792   0.7083
V37     V     0.6709   0.6792   0.2917
V38     V     0.6709   0.6792   0.625
V39     V     0.6709   0.6792   0.9583
V40     V     0.5708   0.5791   0.125
V41     V     0.5708   0.5791   0.4583
V42     V     0.5708   0.5791   0.7917
V43     V     0.6709   0.3208   0.2083
V44     V     0.6709   0.3208   0.5417
V45     V     0.6709   0.3208   0.875
V46     V     0.5708   0.4209   0.0417
V47     V     0.5708   0.4209   0.375
V48     V     0.5708   0.4209   0.7083
V49     V     0.4292   0.9209   0.125
V50     V     0.4292   0.9209   0.4583
V51     V     0.4292   0.9209   0.7917
V52     V     0.3291   0.8208   0.2917
V53     V     0.3291   0.8208   0.625
V54     V     0.3291   0.8208   0.9583
V55     V     0.0708   0.9209   0.2083
V56     V     0.0708   0.9209   0.5417
V57     V     0.0708   0.9209   0.875
V58     V     0.1709   0.8208   0.0417
V59     V     0.1709   0.8208   0.375
V60     V     0.1709   0.8208   0.7083
V61     V     0.4292   0.0791   0.0417
V62     V     0.4292   0.0791   0.375
V63     V     0.4292   0.0791   0.7083
V64     V     0.3291   0.1792   0.2083
V65     V     0.3291   0.1792   0.5417
V66     V     0.3291   0.1792   0.875
V67     V     0.1709   0.1792   0.125
V68     V     0.1709   0.1792   0.4583
V69     V     0.1709   0.1792   0.7917
V70     V     0.0708   0.0791   0.2917
V71     V     0.0708   0.0791   0.625
V72     V     0.0708   0.0791   0.9583
V73     V     0.5708   0.9209   0.2917
V74     V     0.5708   0.9209   0.625
V75     V     0.5708   0.9209   0.9583
V76     V     0.6709   0.8208   0.125
V77     V     0.6709   0.8208   0.4583
V78     V     0.6709   0.8208   0.7917
V79     V     0.8291   0.8208   0.2083
V80     V     0.8291   0.8208   0.5417
V81     V     0.8291   0.8208   0.875
V82     V     0.9292   0.9209   0.0417
V83     V     0.9292   0.9209   0.375
V84     V     0.9292   0.9209   0.7083
V85     V     0.5708   0.0791   0.2083
V86     V     0.5708   0.0791   0.5417
V87     V     0.5708   0.0791   0.875
V88     V     0.6709   0.1792   0.0417
V89     V     0.6709   0.1792   0.375
V90     V     0.6709   0.1792   0.7083
V91     V     0.8291   0.1792   0.2917
V92     V     0.8291   0.1792   0.625
V93     V     0.8291   0.1792   0.9583
V94     V     0.9292   0.0791   0.125
V95     V     0.9292   0.0791   0.4583
V96     V     0.9292   0.0791   0.7917
loop_
_geom_bond_atom_site_label_1
_geom_bond_atom_site_label_2
_geom_bond_distance
_geom_bond_site_symmetry_2
_ccdc_geom_bond_type
V1     V6    10.0   1_554     S
V1     V2    10.0   .     S
V1     V3    10.0   1_554     S
V1     V4    10.0   .     S
V1     V22    10.0   .     S
V1     V31    10.0   1_455     S
V1     V33    10.0   1_454     S
V2     V4    10.0   .     S
V2     V3    10.0   .     S
V2     V5    10.0   .     S
V2     V23    10.0   .     S
V2     V32    10.0   1_455     S
V2     V31    10.0   1_455     S
V3     V5    10.0   .     S
V3     V1    10.0   1_556     S
V3     V6    10.0   .     S
V3     V24    10.0   .     S
V3     V33    10.0   1_455     S
V3     V32    10.0   1_455     S
V4     V58    10.0   .     S
V4     V59    10.0   .     S
V4     V6    10.0   1_554     S
V4     V5    10.0   .     S
V4     V7    10.0   .     S
V5     V59    10.0   .     S
V5     V60    10.0   .     S
V5     V6    10.0   .     S
V5     V8    10.0   .     S
V6     V60    10.0   .     S
V6     V58    10.0   1_556     S
V6     V1    10.0   1_556     S
V6     V4    10.0   1_556     S
V6     V9    10.0   .     S
V7     V52    10.0   .     S
V7     V54    10.0   1_554     S
V7     V12    10.0   1_554     S
V7     V8    10.0   .     S
V7     V9    10.0   1_554     S
V7     V10    10.0   .     S
V8     V53    10.0   .     S
V8     V52    10.0   .     S
V8     V10    10.0   .     S
V8     V9    10.0   .     S
V8     V11    10.0   .     S
V9     V54    10.0   .     S
V9     V53    10.0   .     S
V9     V11    10.0   .     S
V9     V7    10.0   1_556     S
V9     V12    10.0   .     S
V10     V12    10.0   1_554     S
V10     V11    10.0   .     S
V10     V16    10.0   .     S
V10     V40    10.0   .     S
V10     V41    10.0   .     S
V11     V12    10.0   .     S
V11     V17    10.0   .     S
V11     V41    10.0   .     S
V11     V42    10.0   .     S
V12     V7    10.0   1_556     S
V12     V10    10.0   1_556     S
V12     V18    10.0   .     S
V12     V42    10.0   .     S
V12     V40    10.0   1_556     S
V13     V66    10.0   1_554     S
V13     V64    10.0   .     S
V13     V16    10.0   .     S
V13     V14    10.0   .     S
V13     V15    10.0   1_554     S
V13     V18    10.0   1_554     S
V13     V21    10.0   1_554     S
V14     V64    10.0   .     S
V14     V65    10.0   .     S
V14     V17    10.0   .     S
V14     V15    10.0   .     S
V14     V16    10.0   .     S
V14     V19    10.0   .     S
V15     V65    10.0   .     S
V15     V66    10.0   .     S
V15     V18    10.0   .     S
V15     V13    10.0   1_556     S
V15     V17    10.0   .     S
V15     V20    10.0   .     S
V16     V18    10.0   1_554     S
V16     V17    10.0   .     S
V16     V47    10.0   .     S
V16     V46    10.0   .     S
V17     V18    10.0   .     S
V17     V48    10.0   .     S
V17     V47    10.0   .     S
V18     V16    10.0   1_556     S
V18     V13    10.0   1_556     S
V18     V46    10.0   1_556     S
V18     V48    10.0   .     S
V19     V22    10.0   .     S
V19     V21    10.0   1_554     S
V19     V20    10.0   .     S
V19     V23    10.0   .     S
V19     V68    10.0   .     S
V19     V67    10.0   .     S
V20     V23    10.0   .     S
V20     V21    10.0   .     S
V20     V24    10.0   .     S
V20     V69    10.0   .     S
V20     V68    10.0   .     S
V21     V24    10.0   .     S
V21     V19    10.0   1_556     S
V21     V22    10.0   1_556     S
V21     V13    10.0   1_556     S
V21     V67    10.0   1_556     S
V21     V69    10.0   .     S
V22     V21    10.0   1_554     S
V22     V23    10.0   .     S
V22     V24    10.0   1_554     S
V22     V30    10.0   1_454     S
V22     V28    10.0   1_455     S
V23     V24    10.0   .     S
V23     V28    10.0   1_455     S
V23     V29    10.0   1_455     S
V24     V22    10.0   1_556     S
V24     V29    10.0   1_455     S
V24     V30    10.0   1_455     S
V25     V91    10.0   .     S
V25     V93    10.0   1_554     S
V25     V30    10.0   1_554     S
V25     V26    10.0   .     S
V25     V27    10.0   1_554     S
V25     V28    10.0   .     S
V25     V43    10.0   .     S
V26     V92    10.0   .     S
V26     V91    10.0   .     S
V26     V28    10.0   .     S
V26     V27    10.0   .     S
V26     V29    10.0   .     S
V26     V44    10.0   .     S
V27     V93    10.0   .     S
V27     V92    10.0   .     S
V27     V29    10.0   .     S
V27     V25    10.0   1_556     S
V27     V30    10.0   .     S
V27     V45    10.0   .     S
V28     V23    10.0   1_655     S
V28     V22    10.0   1_655     S
V28     V30    10.0   1_554     S
V28     V29    10.0   .     S
V28     V31    10.0   .     S
V29     V24    10.0   1_655     S
V29     V23    10.0   1_655     S
V29     V30    10.0   .     S
V29     V32    10.0   .     S
V30     V22    10.0   1_656     S
V30     V24    10.0   1_655     S
V30     V25    10.0   1_556     S
V30     V28    10.0   1_556     S
V30     V33    10.0   .     S
V31     V34    10.0   .     S
V31     V33    10.0   1_554     S
V31     V32    10.0   .     S
V31     V35    10.0   .     S
V31     V1    10.0   1_655     S
V31     V2    10.0   1_655     S
V32     V35    10.0   .     S
V32     V33    10.0   .     S
V32     V36    10.0   .     S
V32     V2    10.0   1_655     S
V32     V3    10.0   1_655     S
V33     V36    10.0   .     S
V33     V31    10.0   1_556     S
V33     V34    10.0   1_556     S
V33     V3    10.0   1_655     S
V33     V1    10.0   1_656     S
V34     V81    10.0   1_554     S
V34     V79    10.0   .     S
V34     V35    10.0   .     S
V34     V36    10.0   1_554     S
V34     V33    10.0   1_554     S
V34     V39    10.0   1_554     S
V35     V79    10.0   .     S
V35     V80    10.0   .     S
V35     V36    10.0   .     S
V35     V37    10.0   .     S
V36     V80    10.0   .     S
V36     V81    10.0   .     S
V36     V34    10.0   1_556     S
V36     V38    10.0   .     S
V37     V77    10.0   .     S
V37     V76    10.0   .     S
V37     V40    10.0   .     S
V37     V39    10.0   1_554     S
V37     V38    10.0   .     S
V37     V41    10.0   .     S
V38     V78    10.0   .     S
V38     V77    10.0   .     S
V38     V41    10.0   .     S
V38     V39    10.0   .     S
V38     V42    10.0   .     S
V39     V76    10.0   1_556     S
V39     V78    10.0   .     S
V39     V34    10.0   1_556     S
V39     V42    10.0   .     S
V39     V37    10.0   1_556     S
V39     V40    10.0   1_556     S
V40     V12    10.0   1_554     S
V40     V41    10.0   .     S
V40     V42    10.0   1_554     S
V40     V39    10.0   1_554     S
V40     V46    10.0   .     S
V41     V42    10.0   .     S
V41     V47    10.0   .     S
V42     V40    10.0   1_556     S
V42     V48    10.0   .     S
V43     V88    10.0   .     S
V43     V89    10.0   .     S
V43     V47    10.0   .     S
V43     V45    10.0   1_554     S
V43     V44    10.0   .     S
V43     V46    10.0   .     S
V44     V89    10.0   .     S
V44     V90    10.0   .     S
V44     V48    10.0   .     S
V44     V45    10.0   .     S
V44     V47    10.0   .     S
V45     V90    10.0   .     S
V45     V88    10.0   1_556     S
V45     V46    10.0   1_556     S
V45     V43    10.0   1_556     S
V45     V48    10.0   .     S
V46     V18    10.0   1_554     S
V46     V45    10.0   1_554     S
V46     V47    10.0   .     S
V46     V48    10.0   1_554     S
V47     V48    10.0   .     S
V48     V46    10.0   1_556     S
V49     V73    10.0   .     S
V49     V75    10.0   1_554     S
V49     V52    10.0   .     S
V49     V50    10.0   .     S
V49     V51    10.0   1_554     S
V49     V54    10.0   1_554     S
V49     V61    10.0   1_565     S
V50     V74    10.0   .     S
V50     V73    10.0   .     S
V50     V53    10.0   .     S
V50     V51    10.0   .     S
V50     V52    10.0   .     S
V50     V62    10.0   1_565     S
V51     V75    10.0   .     S
V51     V74    10.0   .     S
V51     V54    10.0   .     S
V51     V49    10.0   1_556     S
V51     V53    10.0   .     S
V51     V63    10.0   1_565     S
V52     V54    10.0   1_554     S
V52     V53    10.0   .     S
V52     V59    10.0   .     S
V53     V54    10.0   .     S
V53     V60    10.0   .     S
V54     V7    10.0   1_556     S
V54     V49    10.0   1_556     S
V54     V52    10.0   1_556     S
V54     V58    10.0   1_556     S
V55     V58    10.0   .     S
V55     V57    10.0   1_554     S
V55     V56    10.0   .     S
V55     V59    10.0   .     S
V55     V70    10.0   1_565     S
V55     V82    10.0   1_455     S
V55     V83    10.0   1_455     S
V56     V59    10.0   .     S
V56     V57    10.0   .     S
V56     V60    10.0   .     S
V56     V71    10.0   1_565     S
V56     V83    10.0   1_455     S
V56     V84    10.0   1_455     S
V57     V60    10.0   .     S
V57     V55    10.0   1_556     S
V57     V58    10.0   1_556     S
V57     V72    10.0   1_565     S
V57     V84    10.0   1_455     S
V57     V82    10.0   1_456     S
V58     V6    10.0   1_554     S
V58     V57    10.0   1_554     S
V58     V59    10.0   .     S
V58     V60    10.0   1_554     S
V58     V54    10.0   1_554     S
V59     V60    10.0   .     S
V60     V58    10.0   1_556     S
V61     V87    10.0   1_554     S
V61     V85    10.0   .     S
V61     V66    10.0   1_554     S
V61     V62    10.0   .     S
V61     V63    10.0   1_554     S
V61     V64    10.0   .     S
V61     V49    10.0   1_545     S
V62     V85    10.0   .     S
V62     V86    10.0   .     S
V62     V64    10.0   .     S
V62     V63    10.0   .     S
V62     V65    10.0   .     S
V62     V50    10.0   1_545     S
V63     V86    10.0   .     S
V63     V87    10.0   .     S
V63     V65    10.0   .     S
V63     V61    10.0   1_556     S
V63     V66    10.0   .     S
V63     V51    10.0   1_545     S
V64     V66    10.0   1_554     S
V64     V65    10.0   .     S
V64     V67    10.0   .     S
V65     V66    10.0   .     S
V65     V68    10.0   .     S
V66     V13    10.0   1_556     S
V66     V61    10.0   1_556     S
V66     V64    10.0   1_556     S
V66     V69    10.0   .     S
V67     V21    10.0   1_554     S
V67     V72    10.0   1_554     S
V67     V68    10.0   .     S
V67     V69    10.0   1_554     S
V67     V70    10.0   .     S
V68     V70    10.0   .     S
V68     V69    10.0   .     S
V68     V71    10.0   .     S
V69     V71    10.0   .     S
V69     V67    10.0   1_556     S
V69     V72    10.0   .     S
V70     V72    10.0   1_554     S
V70     V71    10.0   .     S
V70     V55    10.0   1_545     S
V70     V95    10.0   1_455     S
V70     V94    10.0   1_455     S
V71     V72    10.0   .     S
V71     V56    10.0   1_545     S
V71     V96    10.0   1_455     S
V71     V95    10.0   1_455     S
V72     V67    10.0   1_556     S
V72     V70    10.0   1_556     S
V72     V57    10.0   1_545     S
V72     V94    10.0   1_456     S
V72     V96    10.0   1_455     S
V73     V77    10.0   .     S
V73     V75    10.0   1_554     S
V73     V74    10.0   .     S
V73     V76    10.0   .     S
V73     V85    10.0   1_565     S
V74     V78    10.0   .     S
V74     V75    10.0   .     S
V74     V77    10.0   .     S
V74     V86    10.0   1_565     S
V75     V49    10.0   1_556     S
V75     V76    10.0   1_556     S
V75     V73    10.0   1_556     S
V75     V78    10.0   .     S
V75     V87    10.0   1_565     S
V76     V39    10.0   1_554     S
V76     V75    10.0   1_554     S
V76     V77    10.0   .     S
V76     V78    10.0   1_554     S
V76     V79    10.0   .     S
V77     V78    10.0   .     S
V77     V80    10.0   .     S
V78     V76    10.0   1_556     S
V78     V81    10.0   .     S
V79     V83    10.0   .     S
V79     V81    10.0   1_554     S
V79     V80    10.0   .     S
V79     V82    10.0   .     S
V80     V84    10.0   .     S
V80     V81    10.0   .     S
V80     V83    10.0   .     S
V81     V34    10.0   1_556     S
V81     V82    10.0   1_556     S
V81     V79    10.0   1_556     S
V81     V84    10.0   .     S
V82     V81    10.0   1_554     S
V82     V83    10.0   .     S
V82     V84    10.0   1_554     S
V82     V94    10.0   1_565     S
V82     V55    10.0   1_655     S
V82     V57    10.0   1_654     S
V83     V84    10.0   .     S
V83     V95    10.0   1_565     S
V83     V56    10.0   1_655     S
V83     V55    10.0   1_655     S
V84     V82    10.0   1_556     S
V84     V96    10.0   1_565     S
V84     V57    10.0   1_655     S
V84     V56    10.0   1_655     S
V85     V73    10.0   1_545     S
V85     V88    10.0   .     S
V85     V87    10.0   1_554     S
V85     V86    10.0   .     S
V85     V89    10.0   .     S
V86     V74    10.0   1_545     S
V86     V89    10.0   .     S
V86     V87    10.0   .     S
V86     V90    10.0   .     S
V87     V61    10.0   1_556     S
V87     V75    10.0   1_545     S
V87     V90    10.0   .     S
V87     V85    10.0   1_556     S
V87     V88    10.0   1_556     S
V88     V45    10.0   1_554     S
V88     V87    10.0   1_554     S
V88     V89    10.0   .     S
V88     V90    10.0   1_554     S
V88     V93    10.0   1_554     S
V89     V90    10.0   .     S
V89     V91    10.0   .     S
V90     V88    10.0   1_556     S
V90     V92    10.0   .     S
V91     V94    10.0   .     S
V91     V93    10.0   1_554     S
V91     V92    10.0   .     S
V91     V95    10.0   .     S
V92     V95    10.0   .     S
V92     V93    10.0   .     S
V92     V96    10.0   .     S
V93     V25    10.0   1_556     S
V93     V96    10.0   .     S
V93     V91    10.0   1_556     S
V93     V94    10.0   1_556     S
V93     V88    10.0   1_556     S
V94     V72    10.0   1_654     S
V94     V70    10.0   1_655     S
V94     V82    10.0   1_545     S
V94     V93    10.0   1_554     S
V94     V95    10.0   .     S
V94     V96    10.0   1_554     S
V95     V70    10.0   1_655     S
V95     V71    10.0   1_655     S
V95     V83    10.0   1_545     S
V95     V96    10.0   .     S
V96     V71    10.0   1_655     S
V96     V72    10.0   1_655     S
V96     V84    10.0   1_545     S
V96     V94    10.0   1_556     S
