data_xfo
_audit_creation_date              2019-12-31
_audit_creation_method            'Pymatgen'
_symmetry_space_group_name_H-M    'P1'
_symmetry_Int_Tables_number       1
loop_
_symmetry_equiv_pos_as_xyz
  x,y,z
_cell_length_a                    43.2107
_cell_length_b                    43.2107
_cell_length_c                    35.7486
_cell_angle_alpha                 90.0
_cell_angle_beta                 90.0
_cell_angle_gamma                 90.0
loop_
_atom_site_label
_atom_site_type_symbol
_atom_site_fract_x
_atom_site_fract_y
_atom_site_fract_z
V1     V     0.6541   0.1981   0.3282
V2     V     0.6541   0.1981   0.8282
V3     V     0.5519   0.4041   0.2967
V4     V     0.5519   0.4041   0.7968
V5     V     0.4481   0.0959   0.2967
V6     V     0.4481   0.0959   0.7968
V7     V     0.3459   0.3019   0.3282
V8     V     0.3459   0.3019   0.8282
V9     V     0.4481   0.4041   0.0467
V10     V     0.4481   0.4041   0.5468
V11     V     0.6541   0.3019   0.0783
V12     V     0.6541   0.3019   0.5782
V13     V     0.5519   0.0959   0.0468
V14     V     0.5519   0.0959   0.5468
V15     V     0.3459   0.1981   0.0783
V16     V     0.3459   0.1981   0.5782
V17     V     0.6541   0.6981   0.1718
V18     V     0.6541   0.6981   0.6718
V19     V     0.5519   0.9041   0.2032
V20     V     0.5519   0.9041   0.7032
V21     V     0.4481   0.5959   0.2032
V22     V     0.4481   0.5959   0.7032
V23     V     0.3459   0.8019   0.1718
V24     V     0.3459   0.8019   0.6718
V25     V     0.6541   0.8019   0.4218
V26     V     0.6541   0.8019   0.9217
V27     V     0.3459   0.6981   0.4218
V28     V     0.3459   0.6981   0.9217
V29     V     0.4481   0.9041   0.4532
V30     V     0.4481   0.9041   0.9532
V31     V     0.5519   0.5959   0.4532
V32     V     0.5519   0.5959   0.9532
V33     V     0.8459   0.6981   0.3283
V34     V     0.8459   0.6981   0.8282
V35     V     0.1541   0.8019   0.3282
V36     V     0.1541   0.8019   0.8282
V37     V     0.0519   0.5959   0.2967
V38     V     0.0519   0.5959   0.7968
V39     V     0.9481   0.9041   0.2967
V40     V     0.9481   0.9041   0.7968
V41     V     0.9481   0.5959   0.0467
V42     V     0.9481   0.5959   0.5468
V43     V     0.8459   0.8019   0.0782
V44     V     0.8459   0.8019   0.5782
V45     V     0.1541   0.6981   0.0782
V46     V     0.1541   0.6981   0.5782
V47     V     0.0519   0.9041   0.0467
V48     V     0.0519   0.9041   0.5468
V49     V     0.0519   0.4041   0.4532
V50     V     0.0519   0.4041   0.9532
V51     V     0.1541   0.1981   0.4218
V52     V     0.1541   0.1981   0.9217
V53     V     0.8459   0.3019   0.4218
V54     V     0.8459   0.3019   0.9217
V55     V     0.9481   0.0959   0.4532
V56     V     0.9481   0.0959   0.9532
V57     V     0.1541   0.3019   0.1718
V58     V     0.1541   0.3019   0.6718
V59     V     0.0519   0.0959   0.2032
V60     V     0.0519   0.0959   0.7032
V61     V     0.9481   0.4041   0.2033
V62     V     0.9481   0.4041   0.7032
V63     V     0.8459   0.1981   0.1718
V64     V     0.8459   0.1981   0.6718
loop_
_geom_bond_atom_site_label_1
_geom_bond_atom_site_label_2
_geom_bond_distance
_geom_bond_site_symmetry_2
_ccdc_geom_bond_type
V1     V14    10.0   .     S
V1     V12    10.0   .     S
V1     V5    10.0   .     S
V1     V3    10.0   .     S
V1     V11    10.0   .     S
V1     V53    10.0   .     S
V1     V63    10.0   .     S
V2     V13    10.0   1_556     S
V2     V11    10.0   1_556     S
V2     V6    10.0   .     S
V2     V4    10.0   .     S
V2     V12    10.0   .     S
V2     V54    10.0   .     S
V2     V64    10.0   .     S
V3     V21    10.0   .     S
V3     V31    10.0   .     S
V3     V10    10.0   .     S
V3     V7    10.0   .     S
V3     V9    10.0   .     S
V3     V11    10.0   .     S
V4     V22    10.0   .     S
V4     V32    10.0   .     S
V4     V9    10.0   1_556     S
V4     V8    10.0   .     S
V4     V10    10.0   .     S
V4     V12    10.0   .     S
V5     V14    10.0   .     S
V5     V7    10.0   .     S
V5     V13    10.0   .     S
V5     V15    10.0   .     S
V5     V19    10.0   1_545     S
V5     V29    10.0   1_545     S
V6     V13    10.0   1_556     S
V6     V8    10.0   .     S
V6     V14    10.0   .     S
V6     V16    10.0   .     S
V6     V20    10.0   1_545     S
V6     V30    10.0   1_545     S
V7     V51    10.0   .     S
V7     V57    10.0   .     S
V7     V10    10.0   .     S
V7     V16    10.0   .     S
V7     V15    10.0   .     S
V8     V52    10.0   .     S
V8     V58    10.0   .     S
V8     V9    10.0   1_556     S
V8     V15    10.0   1_556     S
V8     V16    10.0   .     S
V9     V32    10.0   1_554     S
V9     V21    10.0   .     S
V9     V4    10.0   1_554     S
V9     V8    10.0   1_554     S
V9     V11    10.0   .     S
V9     V15    10.0   .     S
V10     V31    10.0   .     S
V10     V22    10.0   .     S
V10     V12    10.0   .     S
V10     V16    10.0   .     S
V11     V2    10.0   1_554     S
V11     V13    10.0   .     S
V11     V63    10.0   .     S
V11     V54    10.0   1_554     S
V12     V14    10.0   .     S
V12     V64    10.0   .     S
V12     V53    10.0   .     S
V13     V6    10.0   1_554     S
V13     V2    10.0   1_554     S
V13     V15    10.0   .     S
V13     V30    10.0   1_544     S
V13     V19    10.0   1_545     S
V14     V16    10.0   .     S
V14     V29    10.0   1_545     S
V14     V20    10.0   1_545     S
V15     V57    10.0   .     S
V15     V52    10.0   1_554     S
V15     V8    10.0   1_554     S
V16     V58    10.0   .     S
V16     V51    10.0   .     S
V17     V32    10.0   1_554     S
V17     V26    10.0   1_554     S
V17     V19    10.0   .     S
V17     V21    10.0   .     S
V17     V25    10.0   .     S
V17     V33    10.0   .     S
V17     V43    10.0   .     S
V18     V31    10.0   .     S
V18     V25    10.0   .     S
V18     V20    10.0   .     S
V18     V22    10.0   .     S
V18     V26    10.0   .     S
V18     V34    10.0   .     S
V18     V44    10.0   .     S
V19     V5    10.0   1_565     S
V19     V13    10.0   1_565     S
V19     V23    10.0   .     S
V19     V30    10.0   1_554     S
V19     V29    10.0   .     S
V19     V25    10.0   .     S
V20     V6    10.0   1_565     S
V20     V14    10.0   1_565     S
V20     V24    10.0   .     S
V20     V29    10.0   .     S
V20     V30    10.0   .     S
V20     V26    10.0   .     S
V21     V32    10.0   1_554     S
V21     V31    10.0   .     S
V21     V27    10.0   .     S
V21     V23    10.0   .     S
V22     V31    10.0   .     S
V22     V32    10.0   .     S
V22     V28    10.0   .     S
V22     V24    10.0   .     S
V23     V27    10.0   .     S
V23     V30    10.0   1_554     S
V23     V28    10.0   1_554     S
V23     V45    10.0   .     S
V23     V35    10.0   .     S
V24     V28    10.0   .     S
V24     V29    10.0   .     S
V24     V27    10.0   .     S
V24     V46    10.0   .     S
V24     V36    10.0   .     S
V25     V29    10.0   .     S
V25     V31    10.0   .     S
V25     V33    10.0   .     S
V25     V44    10.0   .     S
V26     V17    10.0   1_556     S
V26     V30    10.0   .     S
V26     V32    10.0   .     S
V26     V34    10.0   .     S
V26     V43    10.0   1_556     S
V27     V29    10.0   .     S
V27     V31    10.0   .     S
V27     V46    10.0   .     S
V27     V35    10.0   .     S
V28     V23    10.0   1_556     S
V28     V30    10.0   .     S
V28     V32    10.0   .     S
V28     V45    10.0   1_556     S
V28     V36    10.0   .     S
V29     V5    10.0   1_565     S
V29     V14    10.0   1_565     S
V30     V6    10.0   1_565     S
V30     V13    10.0   1_566     S
V30     V19    10.0   1_556     S
V30     V23    10.0   1_556     S
V32     V9    10.0   1_556     S
V32     V21    10.0   1_556     S
V32     V17    10.0   1_556     S
V33     V43    10.0   .     S
V33     V44    10.0   .     S
V33     V42    10.0   .     S
V33     V37    10.0   1_655     S
V33     V39    10.0   .     S
V34     V44    10.0   .     S
V34     V43    10.0   1_556     S
V34     V41    10.0   1_556     S
V34     V38    10.0   1_655     S
V34     V40    10.0   .     S
V35     V48    10.0   .     S
V35     V46    10.0   .     S
V35     V37    10.0   .     S
V35     V39    10.0   1_455     S
V35     V45    10.0   .     S
V36     V47    10.0   1_556     S
V36     V45    10.0   1_556     S
V36     V38    10.0   .     S
V36     V40    10.0   1_455     S
V36     V46    10.0   .     S
V37     V61    10.0   1_455     S
V37     V49    10.0   .     S
V37     V42    10.0   1_455     S
V37     V33    10.0   1_455     S
V37     V45    10.0   .     S
V37     V41    10.0   1_455     S
V38     V62    10.0   1_455     S
V38     V50    10.0   .     S
V38     V41    10.0   1_456     S
V38     V34    10.0   1_455     S
V38     V46    10.0   .     S
V38     V42    10.0   1_455     S
V39     V48    10.0   1_655     S
V39     V43    10.0   .     S
V39     V47    10.0   1_655     S
V39     V35    10.0   1_655     S
V39     V59    10.0   1_665     S
V39     V55    10.0   1_565     S
V40     V47    10.0   1_656     S
V40     V44    10.0   .     S
V40     V48    10.0   1_655     S
V40     V36    10.0   1_655     S
V40     V60    10.0   1_665     S
V40     V56    10.0   1_565     S
V41     V61    10.0   .     S
V41     V50    10.0   1_654     S
V41     V34    10.0   1_554     S
V41     V38    10.0   1_654     S
V41     V37    10.0   1_655     S
V41     V43    10.0   .     S
V41     V45    10.0   1_655     S
V42     V62    10.0   .     S
V42     V49    10.0   1_655     S
V42     V37    10.0   1_655     S
V42     V38    10.0   1_655     S
V42     V44    10.0   .     S
V42     V46    10.0   1_655     S
V43     V26    10.0   1_554     S
V43     V34    10.0   1_554     S
V43     V47    10.0   1_655     S
V44     V48    10.0   1_655     S
V45     V36    10.0   1_554     S
V45     V47    10.0   .     S
V45     V41    10.0   1_455     S
V45     V28    10.0   1_554     S
V46     V48    10.0   .     S
V46     V42    10.0   1_455     S
V47     V40    10.0   1_454     S
V47     V36    10.0   1_554     S
V47     V39    10.0   1_455     S
V47     V43    10.0   1_455     S
V47     V59    10.0   1_565     S
V47     V56    10.0   1_464     S
V48     V39    10.0   1_455     S
V48     V40    10.0   1_455     S
V48     V44    10.0   1_455     S
V48     V60    10.0   1_565     S
V48     V55    10.0   1_465     S
V49     V42    10.0   1_455     S
V49     V58    10.0   .     S
V49     V62    10.0   1_455     S
V49     V51    10.0   .     S
V49     V53    10.0   1_455     S
V49     V61    10.0   1_455     S
V50     V41    10.0   1_456     S
V50     V57    10.0   1_556     S
V50     V61    10.0   1_456     S
V50     V52    10.0   .     S
V50     V54    10.0   1_455     S
V50     V62    10.0   1_455     S
V51     V59    10.0   .     S
V51     V57    10.0   .     S
V51     V58    10.0   .     S
V51     V55    10.0   1_455     S
V52     V15    10.0   1_556     S
V52     V60    10.0   .     S
V52     V58    10.0   .     S
V52     V57    10.0   1_556     S
V52     V56    10.0   1_455     S
V53     V55    10.0   .     S
V53     V49    10.0   1_655     S
V53     V64    10.0   .     S
V53     V63    10.0   .     S
V53     V61    10.0   .     S
V54     V11    10.0   1_556     S
V54     V56    10.0   .     S
V54     V50    10.0   1_655     S
V54     V63    10.0   1_556     S
V54     V64    10.0   .     S
V54     V62    10.0   .     S
V55     V59    10.0   1_655     S
V55     V51    10.0   1_655     S
V55     V64    10.0   .     S
V55     V60    10.0   1_655     S
V55     V39    10.0   1_545     S
V55     V48    10.0   1_645     S
V56     V60    10.0   1_655     S
V56     V52    10.0   1_655     S
V56     V63    10.0   1_556     S
V56     V59    10.0   1_656     S
V56     V40    10.0   1_545     S
V56     V47    10.0   1_646     S
V57     V52    10.0   1_554     S
V57     V50    10.0   1_554     S
V57     V61    10.0   1_455     S
V57     V59    10.0   .     S
V58     V62    10.0   1_455     S
V58     V60    10.0   .     S
V59     V55    10.0   1_455     S
V59     V56    10.0   1_454     S
V59     V63    10.0   1_455     S
V59     V39    10.0   1_445     S
V59     V47    10.0   1_545     S
V60     V56    10.0   1_455     S
V60     V55    10.0   1_455     S
V60     V64    10.0   1_455     S
V60     V40    10.0   1_445     S
V60     V48    10.0   1_545     S
V61     V37    10.0   1_655     S
V61     V50    10.0   1_654     S
V61     V49    10.0   1_655     S
V61     V57    10.0   1_655     S
V61     V63    10.0   .     S
V62     V38    10.0   1_655     S
V62     V49    10.0   1_655     S
V62     V50    10.0   1_655     S
V62     V58    10.0   1_655     S
V62     V64    10.0   .     S
V63     V54    10.0   1_554     S
V63     V56    10.0   1_554     S
V63     V59    10.0   1_655     S
V64     V60    10.0   1_655     S
