data_xfr
_audit_creation_date              2019-12-31
_audit_creation_method            'Pymatgen'
_symmetry_space_group_name_H-M    'P1'
_symmetry_Int_Tables_number       1
loop_
_symmetry_equiv_pos_as_xyz
  x,y,z
_cell_length_a                    38.637
_cell_length_b                    38.637
_cell_length_c                    75.8614
_cell_angle_alpha                 90.0
_cell_angle_beta                 90.0
_cell_angle_gamma                 90.0
loop_
_atom_site_label
_atom_site_type_symbol
_atom_site_fract_x
_atom_site_fract_y
_atom_site_fract_z
V1     V     0.3415   0.0335   0.6863
V2     V     0.3415   0.5335   0.6863
V3     V     0.8415   0.0335   0.6863
V4     V     0.8415   0.5335   0.6863
V5     V     0.3415   0.4665   0.8137
V6     V     0.3415   0.9665   0.8137
V7     V     0.8415   0.4665   0.8137
V8     V     0.8415   0.9665   0.8137
V9     V     0.4085   0.2165   0.8137
V10     V     0.4085   0.7165   0.8137
V11     V     0.9085   0.2165   0.8137
V12     V     0.9085   0.7165   0.8137
V13     V     0.4085   0.2835   0.6863
V14     V     0.4085   0.7835   0.6863
V15     V     0.9085   0.2835   0.6863
V16     V     0.9085   0.7835   0.6863
V17     V     0.0915   0.4665   0.6863
V18     V     0.0915   0.9665   0.6863
V19     V     0.5915   0.4665   0.6863
V20     V     0.5915   0.9665   0.6863
V21     V     0.0915   0.0335   0.8137
V22     V     0.0915   0.5335   0.8137
V23     V     0.5915   0.0335   0.8137
V24     V     0.5915   0.5335   0.8137
V25     V     0.1585   0.2165   0.6863
V26     V     0.1585   0.7165   0.6863
V27     V     0.6585   0.2165   0.6863
V28     V     0.6585   0.7165   0.6863
V29     V     0.1585   0.2835   0.8137
V30     V     0.1585   0.7835   0.8137
V31     V     0.6585   0.2835   0.8137
V32     V     0.6585   0.7835   0.8137
V33     V     0.3415   0.4665   0.4363
V34     V     0.3415   0.9665   0.4363
V35     V     0.8415   0.4665   0.4363
V36     V     0.8415   0.9665   0.4363
V37     V     0.4085   0.4665   0.5637
V38     V     0.4085   0.9665   0.5637
V39     V     0.9085   0.4665   0.5637
V40     V     0.9085   0.9665   0.5637
V41     V     0.0915   0.0335   0.4363
V42     V     0.0915   0.5335   0.4363
V43     V     0.5915   0.0335   0.4363
V44     V     0.5915   0.5335   0.4363
V45     V     0.1585   0.0335   0.5637
V46     V     0.1585   0.5335   0.5637
V47     V     0.6585   0.0335   0.5637
V48     V     0.6585   0.5335   0.5637
V49     V     0.0915   0.2835   0.5637
V50     V     0.0915   0.7835   0.5637
V51     V     0.5915   0.2835   0.5637
V52     V     0.5915   0.7835   0.5637
V53     V     0.1585   0.2835   0.4363
V54     V     0.1585   0.7835   0.4363
V55     V     0.6585   0.2835   0.4363
V56     V     0.6585   0.7835   0.4363
V57     V     0.4085   0.2165   0.4363
V58     V     0.4085   0.7165   0.4363
V59     V     0.9085   0.2165   0.4363
V60     V     0.9085   0.7165   0.4363
V61     V     0.3415   0.2165   0.5637
V62     V     0.3415   0.7165   0.5637
V63     V     0.8415   0.2165   0.5637
V64     V     0.8415   0.7165   0.5637
V65     V     0.1585   0.2165   0.0637
V66     V     0.1585   0.7165   0.0637
V67     V     0.6585   0.2165   0.0637
V68     V     0.6585   0.7165   0.0637
V69     V     0.0915   0.2165   0.9363
V70     V     0.0915   0.7165   0.9363
V71     V     0.5915   0.2165   0.9363
V72     V     0.5915   0.7165   0.9363
V73     V     0.3415   0.2835   0.9363
V74     V     0.3415   0.7835   0.9363
V75     V     0.8415   0.2835   0.9363
V76     V     0.8415   0.7835   0.9363
V77     V     0.4085   0.2835   0.0637
V78     V     0.4085   0.7835   0.0637
V79     V     0.9085   0.2835   0.0637
V80     V     0.9085   0.7835   0.0637
V81     V     0.4085   0.0335   0.9363
V82     V     0.4085   0.5335   0.9363
V83     V     0.9085   0.0335   0.9363
V84     V     0.9085   0.5335   0.9363
V85     V     0.3415   0.0335   0.0637
V86     V     0.3415   0.5335   0.0637
V87     V     0.8415   0.0335   0.0637
V88     V     0.8415   0.5335   0.0637
V89     V     0.1585   0.4665   0.9363
V90     V     0.1585   0.9665   0.9363
V91     V     0.6585   0.4665   0.9363
V92     V     0.6585   0.9665   0.9363
V93     V     0.0915   0.4665   0.0637
V94     V     0.0915   0.9665   0.0637
V95     V     0.5915   0.4665   0.0637
V96     V     0.5915   0.9665   0.0637
V97     V     0.0915   0.2835   0.1863
V98     V     0.0915   0.7835   0.1863
V99     V     0.5915   0.2835   0.1863
V100     V     0.5915   0.7835   0.1863
V101     V     0.0915   0.2165   0.3137
V102     V     0.0915   0.7165   0.3137
V103     V     0.5915   0.2165   0.3137
V104     V     0.5915   0.7165   0.3137
V105     V     0.1585   0.0335   0.1863
V106     V     0.1585   0.5335   0.1863
V107     V     0.6585   0.0335   0.1863
V108     V     0.6585   0.5335   0.1863
V109     V     0.1585   0.4665   0.3137
V110     V     0.1585   0.9665   0.3137
V111     V     0.6585   0.4665   0.3137
V112     V     0.6585   0.9665   0.3137
V113     V     0.4085   0.4665   0.1863
V114     V     0.4085   0.9665   0.1863
V115     V     0.9085   0.4665   0.1863
V116     V     0.9085   0.9665   0.1863
V117     V     0.4085   0.0335   0.3137
V118     V     0.4085   0.5335   0.3137
V119     V     0.9085   0.0335   0.3137
V120     V     0.9085   0.5335   0.3137
V121     V     0.3415   0.2835   0.3137
V122     V     0.3415   0.7835   0.3137
V123     V     0.8415   0.2835   0.3137
V124     V     0.8415   0.7835   0.3137
V125     V     0.3415   0.2165   0.1863
V126     V     0.3415   0.7165   0.1863
V127     V     0.8415   0.2165   0.1863
V128     V     0.8415   0.7165   0.1863
loop_
_geom_bond_atom_site_label_1
_geom_bond_atom_site_label_2
_geom_bond_distance
_geom_bond_site_symmetry_2
_ccdc_geom_bond_type
V1     V18    10.0   1_545     S
V1     V25    10.0   .     S
V1     V6    9.999   1_545     S
V1     V14    10.0   1_545     S
V1     V13    10.0   .     S
V1     V20    10.0   1_545     S
V1     V38    10.001   1_545     S
V2     V17    10.0   .     S
V2     V26    10.0   .     S
V2     V5    9.999   .     S
V2     V13    10.0   .     S
V2     V14    10.0   .     S
V2     V19    10.0   .     S
V2     V37    10.001   .     S
V3     V20    10.0   1_545     S
V3     V27    10.0   .     S
V3     V8    9.999   1_545     S
V3     V16    10.0   1_545     S
V3     V15    10.0   .     S
V3     V18    10.0   1_645     S
V3     V40    10.001   1_545     S
V4     V19    10.0   .     S
V4     V28    10.0   .     S
V4     V7    9.999   .     S
V4     V15    10.0   .     S
V4     V16    10.0   .     S
V4     V17    10.0   1_655     S
V4     V39    10.001   .     S
V5     V22    10.0   .     S
V5     V29    10.0   .     S
V5     V24    10.0   .     S
V5     V10    10.0   .     S
V5     V9    10.0   .     S
V5     V82    10.001   .     S
V6     V21    10.0   1_565     S
V6     V30    10.0   .     S
V6     V23    10.0   1_565     S
V6     V1    9.999   1_565     S
V6     V9    10.0   1_565     S
V6     V10    10.0   .     S
V6     V81    10.001   1_565     S
V7     V24    10.0   .     S
V7     V31    10.0   .     S
V7     V22    10.0   1_655     S
V7     V12    10.0   .     S
V7     V11    10.0   .     S
V7     V84    10.001   .     S
V8     V23    10.0   1_565     S
V8     V32    10.0   .     S
V8     V21    10.0   1_665     S
V8     V3    9.999   1_565     S
V8     V11    10.0   1_565     S
V8     V12    10.0   .     S
V8     V83    10.001   1_565     S
V9     V29    10.0   .     S
V9     V23    10.0   .     S
V9     V31    10.0   .     S
V9     V13    9.999   .     S
V9     V6    10.0   1_545     S
V9     V73    10.001   .     S
V10     V30    10.0   .     S
V10     V24    10.0   .     S
V10     V32    10.0   .     S
V10     V14    9.999   .     S
V10     V74    10.001   .     S
V11     V31    10.0   .     S
V11     V21    10.0   1_655     S
V11     V29    10.0   1_655     S
V11     V15    9.999   .     S
V11     V8    10.0   1_545     S
V11     V75    10.001   .     S
V12     V32    10.0   .     S
V12     V22    10.0   1_655     S
V12     V30    10.0   1_655     S
V12     V16    9.999   .     S
V12     V76    10.001   .     S
V13     V25    10.0   .     S
V13     V27    10.0   .     S
V13     V19    10.0   .     S
V13     V61    10.001   .     S
V14     V26    10.0   .     S
V14     V1    10.0   1_565     S
V14     V28    10.0   .     S
V14     V20    10.0   .     S
V14     V62    10.001   .     S
V15     V27    10.0   .     S
V15     V25    10.0   1_655     S
V15     V17    10.0   1_655     S
V15     V63    10.001   .     S
V16     V28    10.0   .     S
V16     V3    10.0   1_565     S
V16     V26    10.0   1_655     S
V16     V18    10.0   1_655     S
V16     V64    10.001   .     S
V17     V22    9.999   .     S
V17     V26    10.0   .     S
V17     V25    10.0   .     S
V17     V15    10.0   1_455     S
V17     V4    10.0   1_455     S
V17     V46    10.001   .     S
V18     V1    10.0   1_565     S
V18     V21    9.999   1_565     S
V18     V25    10.0   1_565     S
V18     V26    10.0   .     S
V18     V16    10.0   1_455     S
V18     V3    10.0   1_465     S
V18     V45    10.001   1_565     S
V19     V24    9.999   .     S
V19     V28    10.0   .     S
V19     V27    10.0   .     S
V19     V48    10.001   .     S
V20     V3    10.0   1_565     S
V20     V23    9.999   1_565     S
V20     V27    10.0   1_565     S
V20     V28    10.0   .     S
V20     V1    10.0   1_565     S
V20     V47    10.001   1_565     S
V21     V6    10.0   1_545     S
V21     V8    10.0   1_445     S
V21     V11    10.0   1_455     S
V21     V18    9.999   1_545     S
V21     V30    10.0   1_545     S
V21     V29    10.0   .     S
V21     V90    10.001   1_545     S
V22     V7    10.0   1_455     S
V22     V12    10.0   1_455     S
V22     V29    10.0   .     S
V22     V30    10.0   .     S
V22     V89    10.001   .     S
V23     V8    10.0   1_545     S
V23     V6    10.0   1_545     S
V23     V20    9.999   1_545     S
V23     V32    10.0   1_545     S
V23     V31    10.0   .     S
V23     V92    10.001   1_545     S
V24     V31    10.0   .     S
V24     V32    10.0   .     S
V24     V91    10.001   .     S
V25     V29    9.999   .     S
V25     V18    10.0   1_545     S
V25     V15    10.0   1_455     S
V25     V49    10.001   .     S
V26     V30    9.999   .     S
V26     V16    10.0   1_455     S
V26     V50    10.001   .     S
V27     V31    9.999   .     S
V27     V20    10.0   1_545     S
V27     V51    10.001   .     S
V28     V32    9.999   .     S
V28     V52    10.001   .     S
V29     V11    10.0   1_455     S
V29     V69    10.001   .     S
V30     V12    10.0   1_455     S
V30     V21    10.0   1_565     S
V30     V70    10.001   .     S
V31     V71    10.001   .     S
V32     V23    10.0   1_565     S
V32     V72    10.001   .     S
V33     V57    10.0   .     S
V33     V53    10.0   .     S
V33     V37    9.999   .     S
V33     V42    10.0   .     S
V33     V44    10.0   .     S
V33     V58    10.0   .     S
V33     V118    10.001   .     S
V34     V58    10.0   .     S
V34     V54    10.0   .     S
V34     V38    9.999   .     S
V34     V41    10.0   1_565     S
V34     V43    10.0   1_565     S
V34     V57    10.0   1_565     S
V34     V117    10.001   1_565     S
V35     V59    10.0   .     S
V35     V55    10.0   .     S
V35     V39    9.999   .     S
V35     V44    10.0   .     S
V35     V42    10.0   1_655     S
V35     V60    10.0   .     S
V35     V120    10.001   .     S
V36     V60    10.0   .     S
V36     V56    10.0   .     S
V36     V40    9.999   .     S
V36     V43    10.0   1_565     S
V36     V41    10.0   1_665     S
V36     V59    10.0   1_565     S
V36     V119    10.001   1_565     S
V37     V61    10.0   .     S
V37     V51    10.0   .     S
V37     V48    10.0   .     S
V37     V46    10.0   .     S
V37     V62    10.0   .     S
V38     V62    10.0   .     S
V38     V52    10.0   .     S
V38     V47    10.0   1_565     S
V38     V45    10.0   1_565     S
V38     V61    10.0   1_565     S
V38     V1    10.001   1_565     S
V39     V63    10.0   .     S
V39     V49    10.0   1_655     S
V39     V46    10.0   1_655     S
V39     V48    10.0   .     S
V39     V64    10.0   .     S
V40     V64    10.0   .     S
V40     V50    10.0   1_655     S
V40     V45    10.0   1_665     S
V40     V47    10.0   1_565     S
V40     V63    10.0   1_565     S
V40     V3    10.001   1_565     S
V41     V54    10.0   1_545     S
V41     V45    9.999   .     S
V41     V34    10.0   1_545     S
V41     V36    10.0   1_445     S
V41     V59    10.0   1_455     S
V41     V53    10.0   .     S
V41     V110    10.001   1_545     S
V42     V53    10.0   .     S
V42     V46    9.999   .     S
V42     V35    10.0   1_455     S
V42     V60    10.0   1_455     S
V42     V54    10.0   .     S
V42     V109    10.001   .     S
V43     V56    10.0   1_545     S
V43     V47    9.999   .     S
V43     V36    10.0   1_545     S
V43     V34    10.0   1_545     S
V43     V57    10.0   .     S
V43     V55    10.0   .     S
V43     V112    10.001   1_545     S
V44     V55    10.0   .     S
V44     V48    9.999   .     S
V44     V58    10.0   .     S
V44     V56    10.0   .     S
V44     V111    10.001   .     S
V45     V50    10.0   1_545     S
V45     V40    10.0   1_445     S
V45     V38    10.0   1_545     S
V45     V61    10.0   .     S
V45     V49    10.0   .     S
V45     V18    10.001   1_545     S
V46     V49    10.0   .     S
V46     V39    10.0   1_455     S
V46     V62    10.0   .     S
V46     V50    10.0   .     S
V47     V52    10.0   1_545     S
V47     V38    10.0   1_545     S
V47     V40    10.0   1_545     S
V47     V63    10.0   .     S
V47     V51    10.0   .     S
V47     V20    10.001   1_545     S
V48     V51    10.0   .     S
V48     V64    10.0   .     S
V48     V52    10.0   .     S
V49     V39    10.0   1_455     S
V49     V53    9.999   .     S
V49     V61    10.0   .     S
V49     V63    10.0   1_455     S
V50     V40    10.0   1_455     S
V50     V45    10.0   1_565     S
V50     V54    9.999   .     S
V50     V62    10.0   .     S
V50     V64    10.0   1_455     S
V51     V55    9.999   .     S
V51     V63    10.0   .     S
V51     V61    10.0   .     S
V52     V47    10.0   1_565     S
V52     V56    9.999   .     S
V52     V64    10.0   .     S
V52     V62    10.0   .     S
V53     V57    10.0   .     S
V53     V59    10.0   1_455     S
V53     V101    10.001   .     S
V54     V41    10.0   1_565     S
V54     V58    10.0   .     S
V54     V60    10.0   1_455     S
V54     V102    10.001   .     S
V55     V59    10.0   .     S
V55     V57    10.0   .     S
V55     V103    10.001   .     S
V56     V43    10.0   1_565     S
V56     V60    10.0   .     S
V56     V58    10.0   .     S
V56     V104    10.001   .     S
V57     V61    9.999   .     S
V57     V34    10.0   1_545     S
V57     V121    10.001   .     S
V58     V62    9.999   .     S
V58     V122    10.001   .     S
V59     V63    9.999   .     S
V59     V53    10.0   1_655     S
V59     V36    10.0   1_545     S
V59     V41    10.0   1_655     S
V59     V123    10.001   .     S
V60     V64    9.999   .     S
V60     V54    10.0   1_655     S
V60     V42    10.0   1_655     S
V60     V124    10.001   .     S
V61     V38    10.0   1_545     S
V63     V40    10.0   1_545     S
V63     V49    10.0   1_655     S
V64     V50    10.0   1_655     S
V65     V69    9.999   1_554     S
V65     V77    10.0   .     S
V65     V79    10.0   1_455     S
V65     V85    10.0   .     S
V65     V94    10.0   1_545     S
V65     V93    10.0   .     S
V65     V97    10.001   .     S
V66     V70    9.999   1_554     S
V66     V78    10.0   .     S
V66     V80    10.0   1_455     S
V66     V86    10.0   .     S
V66     V93    10.0   .     S
V66     V94    10.0   .     S
V66     V98    10.001   .     S
V67     V71    9.999   1_554     S
V67     V79    10.0   .     S
V67     V77    10.0   .     S
V67     V87    10.0   .     S
V67     V96    10.0   1_545     S
V67     V95    10.0   .     S
V67     V99    10.001   .     S
V68     V72    9.999   1_554     S
V68     V80    10.0   .     S
V68     V78    10.0   .     S
V68     V88    10.0   .     S
V68     V95    10.0   .     S
V68     V96    10.0   .     S
V68     V100    10.001   .     S
V69     V65    9.999   1_556     S
V69     V73    10.0   .     S
V69     V75    10.0   1_455     S
V69     V83    10.0   1_455     S
V69     V90    10.0   1_545     S
V69     V89    10.0   .     S
V70     V66    9.999   1_556     S
V70     V74    10.0   .     S
V70     V76    10.0   1_455     S
V70     V84    10.0   1_455     S
V70     V89    10.0   .     S
V70     V90    10.0   .     S
V71     V67    9.999   1_556     S
V71     V75    10.0   .     S
V71     V73    10.0   .     S
V71     V81    10.0   .     S
V71     V92    10.0   1_545     S
V71     V91    10.0   .     S
V72     V68    9.999   1_556     S
V72     V76    10.0   .     S
V72     V74    10.0   .     S
V72     V82    10.0   .     S
V72     V91    10.0   .     S
V72     V92    10.0   .     S
V73     V77    9.999   1_556     S
V73     V81    10.0   .     S
V73     V89    10.0   .     S
V73     V82    10.0   .     S
V74     V78    9.999   1_556     S
V74     V82    10.0   .     S
V74     V90    10.0   .     S
V74     V81    10.0   1_565     S
V75     V79    9.999   1_556     S
V75     V69    10.0   1_655     S
V75     V83    10.0   .     S
V75     V91    10.0   .     S
V75     V84    10.0   .     S
V76     V80    9.999   1_556     S
V76     V70    10.0   1_655     S
V76     V84    10.0   .     S
V76     V92    10.0   .     S
V76     V83    10.0   1_565     S
V77     V73    9.999   1_554     S
V77     V85    10.0   .     S
V77     V95    10.0   .     S
V77     V86    10.0   .     S
V77     V125    10.001   .     S
V78     V74    9.999   1_554     S
V78     V86    10.0   .     S
V78     V96    10.0   .     S
V78     V85    10.0   1_565     S
V78     V126    10.001   .     S
V79     V75    9.999   1_554     S
V79     V65    10.0   1_655     S
V79     V87    10.0   .     S
V79     V93    10.0   1_655     S
V79     V88    10.0   .     S
V79     V127    10.001   .     S
V80     V76    9.999   1_554     S
V80     V66    10.0   1_655     S
V80     V88    10.0   .     S
V80     V94    10.0   1_655     S
V80     V87    10.0   1_565     S
V80     V128    10.001   .     S
V81     V74    10.0   1_545     S
V81     V85    9.999   1_556     S
V81     V92    10.0   1_545     S
V81     V90    10.0   1_545     S
V81     V6    10.001   1_545     S
V82     V86    9.999   1_556     S
V82     V91    10.0   .     S
V82     V89    10.0   .     S
V83     V69    10.0   1_655     S
V83     V76    10.0   1_545     S
V83     V87    9.999   1_556     S
V83     V90    10.0   1_645     S
V83     V92    10.0   1_545     S
V83     V8    10.001   1_545     S
V84     V70    10.0   1_655     S
V84     V88    9.999   1_556     S
V84     V89    10.0   1_655     S
V84     V91    10.0   .     S
V85     V78    10.0   1_545     S
V85     V81    9.999   1_554     S
V85     V94    10.0   1_545     S
V85     V96    10.0   1_545     S
V85     V114    10.001   1_545     S
V86     V82    9.999   1_554     S
V86     V93    10.0   .     S
V86     V95    10.0   .     S
V86     V113    10.001   .     S
V87     V80    10.0   1_545     S
V87     V83    9.999   1_554     S
V87     V96    10.0   1_545     S
V87     V94    10.0   1_645     S
V87     V116    10.001   1_545     S
V88     V84    9.999   1_554     S
V88     V95    10.0   .     S
V88     V93    10.0   1_655     S
V88     V115    10.001   .     S
V89     V93    9.999   1_556     S
V89     V84    10.0   1_455     S
V90     V69    10.0   1_565     S
V90     V94    9.999   1_556     S
V90     V83    10.0   1_465     S
V90     V81    10.0   1_565     S
V90     V21    10.001   1_565     S
V91     V95    9.999   1_556     S
V92     V71    10.0   1_565     S
V92     V96    9.999   1_556     S
V92     V81    10.0   1_565     S
V92     V83    10.0   1_565     S
V92     V23    10.001   1_565     S
V93     V79    10.0   1_455     S
V93     V89    9.999   1_554     S
V93     V88    10.0   1_455     S
V93     V106    10.001   .     S
V94     V65    10.0   1_565     S
V94     V80    10.0   1_455     S
V94     V90    9.999   1_554     S
V94     V85    10.0   1_565     S
V94     V87    10.0   1_465     S
V94     V105    10.001   1_565     S
V95     V91    9.999   1_554     S
V95     V108    10.001   .     S
V96     V67    10.0   1_565     S
V96     V92    9.999   1_554     S
V96     V87    10.0   1_565     S
V96     V85    10.0   1_565     S
V96     V107    10.001   1_565     S
V97     V125    10.0   .     S
V97     V101    9.999   .     S
V97     V106    10.0   .     S
V97     V105    10.0   .     S
V97     V115    10.0   1_455     S
V97     V127    10.0   1_455     S
V98     V126    10.0   .     S
V98     V102    9.999   .     S
V98     V105    10.0   1_565     S
V98     V106    10.0   .     S
V98     V116    10.0   1_455     S
V98     V128    10.0   1_455     S
V99     V127    10.0   .     S
V99     V103    9.999   .     S
V99     V108    10.0   .     S
V99     V107    10.0   .     S
V99     V113    10.0   .     S
V99     V125    10.0   .     S
V100     V128    10.0   .     S
V100     V104    9.999   .     S
V100     V107    10.0   1_565     S
V100     V108    10.0   .     S
V100     V114    10.0   .     S
V100     V126    10.0   .     S
V101     V121    10.0   .     S
V101     V110    10.0   1_545     S
V101     V109    10.0   .     S
V101     V119    10.0   1_455     S
V101     V123    10.0   1_455     S
V102     V122    10.0   .     S
V102     V109    10.0   .     S
V102     V110    10.0   .     S
V102     V120    10.0   1_455     S
V102     V124    10.0   1_455     S
V103     V123    10.0   .     S
V103     V112    10.0   1_545     S
V103     V111    10.0   .     S
V103     V117    10.0   .     S
V103     V121    10.0   .     S
V104     V124    10.0   .     S
V104     V111    10.0   .     S
V104     V112    10.0   .     S
V104     V118    10.0   .     S
V104     V122    10.0   .     S
V105     V114    10.0   1_545     S
V105     V125    10.0   .     S
V105     V110    9.999   1_545     S
V105     V98    10.0   1_545     S
V105     V116    10.0   1_445     S
V105     V94    10.001   1_545     S
V106     V113    10.0   .     S
V106     V126    10.0   .     S
V106     V109    9.999   .     S
V106     V115    10.0   1_455     S
V107     V116    10.0   1_545     S
V107     V127    10.0   .     S
V107     V112    9.999   1_545     S
V107     V100    10.0   1_545     S
V107     V114    10.0   1_545     S
V107     V96    10.001   1_545     S
V108     V115    10.0   .     S
V108     V128    10.0   .     S
V108     V111    9.999   .     S
V108     V113    10.0   .     S
V109     V118    10.0   .     S
V109     V121    10.0   .     S
V109     V120    10.0   1_455     S
V110     V117    10.0   1_565     S
V110     V122    10.0   .     S
V110     V101    10.0   1_565     S
V110     V105    9.999   1_565     S
V110     V119    10.0   1_465     S
V110     V41    10.001   1_565     S
V111     V120    10.0   .     S
V111     V123    10.0   .     S
V111     V118    10.0   .     S
V112     V119    10.0   1_565     S
V112     V124    10.0   .     S
V112     V103    10.0   1_565     S
V112     V107    9.999   1_565     S
V112     V117    10.0   1_565     S
V112     V43    10.001   1_565     S
V113     V118    9.999   .     S
V113     V126    10.0   .     S
V113     V125    10.0   .     S
V114     V105    10.0   1_565     S
V114     V107    10.0   1_565     S
V114     V117    9.999   1_565     S
V114     V125    10.0   1_565     S
V114     V126    10.0   .     S
V114     V85    10.001   1_565     S
V115     V106    10.0   1_655     S
V115     V97    10.0   1_655     S
V115     V120    9.999   .     S
V115     V128    10.0   .     S
V115     V127    10.0   .     S
V116     V107    10.0   1_565     S
V116     V105    10.0   1_665     S
V116     V98    10.0   1_655     S
V116     V119    9.999   1_565     S
V116     V127    10.0   1_565     S
V116     V128    10.0   .     S
V116     V87    10.001   1_565     S
V117     V110    10.0   1_545     S
V117     V114    9.999   1_545     S
V117     V122    10.0   1_545     S
V117     V121    10.0   .     S
V117     V112    10.0   1_545     S
V117     V34    10.001   1_545     S
V118     V121    10.0   .     S
V118     V122    10.0   .     S
V119     V112    10.0   1_545     S
V119     V116    9.999   1_545     S
V119     V124    10.0   1_545     S
V119     V123    10.0   .     S
V119     V110    10.0   1_645     S
V119     V101    10.0   1_655     S
V119     V36    10.001   1_545     S
V120     V123    10.0   .     S
V120     V124    10.0   .     S
V120     V109    10.0   1_655     S
V120     V102    10.0   1_655     S
V121     V125    9.999   .     S
V122     V126    9.999   .     S
V122     V117    10.0   1_565     S
V123     V127    9.999   .     S
V123     V101    10.0   1_655     S
V124     V128    9.999   .     S
V124     V119    10.0   1_565     S
V124     V102    10.0   1_655     S
V125     V114    10.0   1_545     S
V127     V97    10.0   1_655     S
V127     V116    10.0   1_545     S
V128     V98    10.0   1_655     S
