data_xfs
_audit_creation_date              2019-12-31
_audit_creation_method            'Pymatgen'
_symmetry_space_group_name_H-M    'P1'
_symmetry_Int_Tables_number       1
loop_
_symmetry_equiv_pos_as_xyz
  x,y,z
_cell_length_a                    38.637
_cell_length_b                    38.637
_cell_length_c                    78.6371
_cell_angle_alpha                 90.0
_cell_angle_beta                 90.0
_cell_angle_gamma                 90.0
loop_
_atom_site_label
_atom_site_type_symbol
_atom_site_fract_x
_atom_site_fract_y
_atom_site_fract_z
V1     V     0.3415   0.2835   0.6886
V2     V     0.3415   0.7835   0.6886
V3     V     0.8415   0.2835   0.6886
V4     V     0.8415   0.7835   0.6886
V5     V     0.3415   0.2835   0.5614
V6     V     0.3415   0.7835   0.5614
V7     V     0.8415   0.2835   0.5614
V8     V     0.8415   0.7835   0.5614
V9     V     0.0915   0.2165   0.6886
V10     V     0.0915   0.7165   0.6886
V11     V     0.5915   0.2165   0.6886
V12     V     0.5915   0.7165   0.6886
V13     V     0.0915   0.2165   0.5614
V14     V     0.0915   0.7165   0.5614
V15     V     0.5915   0.2165   0.5614
V16     V     0.5915   0.7165   0.5614
V17     V     0.1585   0.4665   0.6886
V18     V     0.1585   0.9665   0.6886
V19     V     0.6585   0.4665   0.6886
V20     V     0.6585   0.9665   0.6886
V21     V     0.1585   0.4665   0.5614
V22     V     0.1585   0.9665   0.5614
V23     V     0.6585   0.4665   0.5614
V24     V     0.6585   0.9665   0.5614
V25     V     0.4085   0.0335   0.6886
V26     V     0.4085   0.5335   0.6886
V27     V     0.9085   0.0335   0.6886
V28     V     0.9085   0.5335   0.6886
V29     V     0.4085   0.0335   0.5614
V30     V     0.4085   0.5335   0.5614
V31     V     0.9085   0.0335   0.5614
V32     V     0.9085   0.5335   0.5614
V33     V     0.1585   0.2165   0.4386
V34     V     0.1585   0.7165   0.4386
V35     V     0.6585   0.2165   0.4386
V36     V     0.6585   0.7165   0.4386
V37     V     0.1585   0.2165   0.3114
V38     V     0.1585   0.7165   0.3114
V39     V     0.6585   0.2165   0.3114
V40     V     0.6585   0.7165   0.3114
V41     V     0.4085   0.2835   0.3114
V42     V     0.4085   0.7835   0.3114
V43     V     0.9085   0.2835   0.3114
V44     V     0.9085   0.7835   0.3114
V45     V     0.4085   0.2835   0.4386
V46     V     0.4085   0.7835   0.4386
V47     V     0.9085   0.2835   0.4386
V48     V     0.9085   0.7835   0.4386
V49     V     0.3415   0.0335   0.4386
V50     V     0.3415   0.5335   0.4386
V51     V     0.8415   0.0335   0.4386
V52     V     0.8415   0.5335   0.4386
V53     V     0.3415   0.0335   0.3114
V54     V     0.3415   0.5335   0.3114
V55     V     0.8415   0.0335   0.3114
V56     V     0.8415   0.5335   0.3114
V57     V     0.0915   0.4665   0.3114
V58     V     0.0915   0.9665   0.3114
V59     V     0.5915   0.4665   0.3114
V60     V     0.5915   0.9665   0.3114
V61     V     0.0915   0.4665   0.4386
V62     V     0.0915   0.9665   0.4386
V63     V     0.5915   0.4665   0.4386
V64     V     0.5915   0.9665   0.4386
V65     V     0.3415   0.4665   0.1886
V66     V     0.3415   0.9665   0.1886
V67     V     0.8415   0.4665   0.1886
V68     V     0.8415   0.9665   0.1886
V69     V     0.3415   0.4665   0.0614
V70     V     0.3415   0.9665   0.0614
V71     V     0.8415   0.4665   0.0614
V72     V     0.8415   0.9665   0.0614
V73     V     0.4085   0.2165   0.0614
V74     V     0.4085   0.7165   0.0614
V75     V     0.9085   0.2165   0.0614
V76     V     0.9085   0.7165   0.0614
V77     V     0.4085   0.2165   0.1886
V78     V     0.4085   0.7165   0.1886
V79     V     0.9085   0.2165   0.1886
V80     V     0.9085   0.7165   0.1886
V81     V     0.1585   0.2835   0.1886
V82     V     0.1585   0.7835   0.1886
V83     V     0.6585   0.2835   0.1886
V84     V     0.6585   0.7835   0.1886
V85     V     0.1585   0.2835   0.0614
V86     V     0.1585   0.7835   0.0614
V87     V     0.6585   0.2835   0.0614
V88     V     0.6585   0.7835   0.0614
V89     V     0.0915   0.0335   0.0614
V90     V     0.0915   0.5335   0.0614
V91     V     0.5915   0.0335   0.0614
V92     V     0.5915   0.5335   0.0614
V93     V     0.0915   0.0335   0.1886
V94     V     0.0915   0.5335   0.1886
V95     V     0.5915   0.0335   0.1886
V96     V     0.5915   0.5335   0.1886
V97     V     0.4085   0.4665   0.8114
V98     V     0.4085   0.9665   0.8114
V99     V     0.9085   0.4665   0.8114
V100     V     0.9085   0.9665   0.8114
V101     V     0.4085   0.4665   0.9386
V102     V     0.4085   0.9665   0.9386
V103     V     0.9085   0.4665   0.9386
V104     V     0.9085   0.9665   0.9386
V105     V     0.3415   0.2165   0.8114
V106     V     0.3415   0.7165   0.8114
V107     V     0.8415   0.2165   0.8114
V108     V     0.8415   0.7165   0.8114
V109     V     0.3415   0.2165   0.9386
V110     V     0.3415   0.7165   0.9386
V111     V     0.8415   0.2165   0.9386
V112     V     0.8415   0.7165   0.9386
V113     V     0.0915   0.2835   0.8114
V114     V     0.0915   0.7835   0.8114
V115     V     0.5915   0.2835   0.8114
V116     V     0.5915   0.7835   0.8114
V117     V     0.0915   0.2835   0.9386
V118     V     0.0915   0.7835   0.9386
V119     V     0.5915   0.2835   0.9386
V120     V     0.5915   0.7835   0.9386
V121     V     0.1585   0.0335   0.8114
V122     V     0.1585   0.5335   0.8114
V123     V     0.6585   0.0335   0.8114
V124     V     0.6585   0.5335   0.8114
V125     V     0.1585   0.0335   0.9386
V126     V     0.1585   0.5335   0.9386
V127     V     0.6585   0.0335   0.9386
V128     V     0.6585   0.5335   0.9386
loop_
_geom_bond_atom_site_label_1
_geom_bond_atom_site_label_2
_geom_bond_distance
_geom_bond_site_symmetry_2
_ccdc_geom_bond_type
V1     V17    10.0   .     S
V1     V9    10.0   .     S
V1     V11    10.0   .     S
V1     V5    9.999   .     S
V1     V26    10.0   .     S
V1     V25    10.0   .     S
V1     V105    10.001   .     S
V2     V18    10.0   .     S
V2     V10    10.0   .     S
V2     V12    10.0   .     S
V2     V6    9.999   .     S
V2     V25    10.0   1_565     S
V2     V26    10.0   .     S
V2     V106    10.001   .     S
V3     V19    10.0   .     S
V3     V11    10.0   .     S
V3     V9    10.0   1_655     S
V3     V7    9.999   .     S
V3     V28    10.0   .     S
V3     V27    10.0   .     S
V3     V107    10.001   .     S
V4     V20    10.0   .     S
V4     V12    10.0   .     S
V4     V10    10.0   1_655     S
V4     V8    9.999   .     S
V4     V27    10.0   1_565     S
V4     V28    10.0   .     S
V4     V108    10.001   .     S
V5     V29    10.0   .     S
V5     V21    10.0   .     S
V5     V30    10.0   .     S
V5     V13    10.0   .     S
V5     V15    10.0   .     S
V5     V45    10.001   .     S
V6     V30    10.0   .     S
V6     V22    10.0   .     S
V6     V29    10.0   1_565     S
V6     V14    10.0   .     S
V6     V16    10.0   .     S
V6     V46    10.001   .     S
V7     V31    10.0   .     S
V7     V23    10.0   .     S
V7     V32    10.0   .     S
V7     V15    10.0   .     S
V7     V13    10.0   1_655     S
V7     V47    10.001   .     S
V8     V32    10.0   .     S
V8     V24    10.0   .     S
V8     V31    10.0   1_565     S
V8     V16    10.0   .     S
V8     V14    10.0   1_655     S
V8     V48    10.001   .     S
V9     V27    10.0   1_455     S
V9     V3    10.0   1_455     S
V9     V13    9.999   .     S
V9     V17    10.0   .     S
V9     V18    10.0   1_545     S
V9     V113    10.001   .     S
V10     V28    10.0   1_455     S
V10     V4    10.0   1_455     S
V10     V14    9.999   .     S
V10     V18    10.0   .     S
V10     V17    10.0   .     S
V10     V114    10.001   .     S
V11     V25    10.0   .     S
V11     V15    9.999   .     S
V11     V19    10.0   .     S
V11     V20    10.0   1_545     S
V11     V115    10.001   .     S
V12     V26    10.0   .     S
V12     V16    9.999   .     S
V12     V20    10.0   .     S
V12     V19    10.0   .     S
V12     V116    10.001   .     S
V13     V31    10.0   1_455     S
V13     V22    10.0   1_545     S
V13     V21    10.0   .     S
V13     V7    10.0   1_455     S
V13     V33    10.001   .     S
V14     V32    10.0   1_455     S
V14     V21    10.0   .     S
V14     V22    10.0   .     S
V14     V8    10.0   1_455     S
V14     V34    10.001   .     S
V15     V29    10.0   .     S
V15     V24    10.0   1_545     S
V15     V23    10.0   .     S
V15     V35    10.001   .     S
V16     V30    10.0   .     S
V16     V23    10.0   .     S
V16     V24    10.0   .     S
V16     V36    10.001   .     S
V17     V26    10.0   .     S
V17     V28    10.0   1_455     S
V17     V21    9.999   .     S
V17     V122    10.001   .     S
V18     V25    10.0   1_565     S
V18     V27    10.0   1_465     S
V18     V22    9.999   .     S
V18     V9    10.0   1_565     S
V18     V121    10.001   1_565     S
V19     V28    10.0   .     S
V19     V26    10.0   .     S
V19     V23    9.999   .     S
V19     V124    10.001   .     S
V20     V27    10.0   1_565     S
V20     V25    10.0   1_565     S
V20     V24    9.999   .     S
V20     V11    10.0   1_565     S
V20     V123    10.001   1_565     S
V21     V32    10.0   1_455     S
V21     V30    10.0   .     S
V21     V61    10.001   .     S
V22     V13    10.0   1_565     S
V22     V31    10.0   1_465     S
V22     V29    10.0   1_565     S
V22     V62    10.001   .     S
V23     V30    10.0   .     S
V23     V32    10.0   .     S
V23     V63    10.001   .     S
V24     V15    10.0   1_565     S
V24     V29    10.0   1_565     S
V24     V31    10.0   1_565     S
V24     V64    10.001   .     S
V25     V18    10.0   1_545     S
V25     V20    10.0   1_545     S
V25     V29    9.999   .     S
V25     V2    10.0   1_545     S
V25     V98    10.001   1_545     S
V26     V30    9.999   .     S
V26     V97    10.001   .     S
V27     V20    10.0   1_545     S
V27     V18    10.0   1_645     S
V27     V9    10.0   1_655     S
V27     V31    9.999   .     S
V27     V4    10.0   1_545     S
V27     V100    10.001   1_545     S
V28     V17    10.0   1_655     S
V28     V10    10.0   1_655     S
V28     V32    9.999   .     S
V28     V99    10.001   .     S
V29     V6    10.0   1_545     S
V29     V24    10.0   1_545     S
V29     V22    10.0   1_545     S
V29     V49    10.001   .     S
V30     V50    10.001   .     S
V31     V13    10.0   1_655     S
V31     V8    10.0   1_545     S
V31     V22    10.0   1_645     S
V31     V24    10.0   1_545     S
V31     V51    10.001   .     S
V32     V14    10.0   1_655     S
V32     V21    10.0   1_655     S
V32     V52    10.001   .     S
V33     V49    10.0   .     S
V33     V62    10.0   1_545     S
V33     V61    10.0   .     S
V33     V37    9.999   .     S
V33     V45    10.0   .     S
V33     V47    10.0   1_455     S
V34     V50    10.0   .     S
V34     V61    10.0   .     S
V34     V62    10.0   .     S
V34     V38    9.999   .     S
V34     V46    10.0   .     S
V34     V48    10.0   1_455     S
V35     V51    10.0   .     S
V35     V64    10.0   1_545     S
V35     V63    10.0   .     S
V35     V39    9.999   .     S
V35     V47    10.0   .     S
V35     V45    10.0   .     S
V36     V52    10.0   .     S
V36     V63    10.0   .     S
V36     V64    10.0   .     S
V36     V40    9.999   .     S
V36     V48    10.0   .     S
V36     V46    10.0   .     S
V37     V53    10.0   .     S
V37     V41    10.0   .     S
V37     V43    10.0   1_455     S
V37     V57    10.0   .     S
V37     V58    10.0   1_545     S
V37     V81    10.001   .     S
V38     V54    10.0   .     S
V38     V42    10.0   .     S
V38     V44    10.0   1_455     S
V38     V58    10.0   .     S
V38     V57    10.0   .     S
V38     V82    10.001   .     S
V39     V55    10.0   .     S
V39     V43    10.0   .     S
V39     V41    10.0   .     S
V39     V59    10.0   .     S
V39     V60    10.0   1_545     S
V39     V83    10.001   .     S
V40     V56    10.0   .     S
V40     V44    10.0   .     S
V40     V42    10.0   .     S
V40     V60    10.0   .     S
V40     V59    10.0   .     S
V40     V84    10.001   .     S
V41     V59    10.0   .     S
V41     V45    9.999   .     S
V41     V54    10.0   .     S
V41     V53    10.0   .     S
V41     V77    10.001   .     S
V42     V60    10.0   .     S
V42     V46    9.999   .     S
V42     V53    10.0   1_565     S
V42     V54    10.0   .     S
V42     V78    10.001   .     S
V43     V37    10.0   1_655     S
V43     V57    10.0   1_655     S
V43     V47    9.999   .     S
V43     V56    10.0   .     S
V43     V55    10.0   .     S
V43     V79    10.001   .     S
V44     V38    10.0   1_655     S
V44     V58    10.0   1_655     S
V44     V48    9.999   .     S
V44     V55    10.0   1_565     S
V44     V56    10.0   .     S
V44     V80    10.001   .     S
V45     V49    10.0   .     S
V45     V63    10.0   .     S
V45     V50    10.0   .     S
V46     V50    10.0   .     S
V46     V64    10.0   .     S
V46     V49    10.0   1_565     S
V47     V51    10.0   .     S
V47     V61    10.0   1_655     S
V47     V52    10.0   .     S
V47     V33    10.0   1_655     S
V48     V52    10.0   .     S
V48     V62    10.0   1_655     S
V48     V51    10.0   1_565     S
V48     V34    10.0   1_655     S
V49     V46    10.0   1_545     S
V49     V53    9.999   .     S
V49     V62    10.0   1_545     S
V49     V64    10.0   1_545     S
V50     V54    9.999   .     S
V50     V61    10.0   .     S
V50     V63    10.0   .     S
V51     V48    10.0   1_545     S
V51     V55    9.999   .     S
V51     V64    10.0   1_545     S
V51     V62    10.0   1_645     S
V52     V56    9.999   .     S
V52     V63    10.0   .     S
V52     V61    10.0   1_655     S
V53     V58    10.0   1_545     S
V53     V60    10.0   1_545     S
V53     V42    10.0   1_545     S
V53     V66    10.001   1_545     S
V54     V57    10.0   .     S
V54     V59    10.0   .     S
V54     V65    10.001   .     S
V55     V60    10.0   1_545     S
V55     V58    10.0   1_645     S
V55     V44    10.0   1_545     S
V55     V68    10.001   1_545     S
V56     V59    10.0   .     S
V56     V57    10.0   1_655     S
V56     V67    10.001   .     S
V57     V43    10.0   1_455     S
V57     V56    10.0   1_455     S
V57     V61    9.999   .     S
V57     V94    10.001   .     S
V58     V53    10.0   1_565     S
V58     V44    10.0   1_455     S
V58     V55    10.0   1_465     S
V58     V62    9.999   .     S
V58     V37    10.0   1_565     S
V58     V93    10.001   1_565     S
V59     V63    9.999   .     S
V59     V96    10.001   .     S
V60     V55    10.0   1_565     S
V60     V53    10.0   1_565     S
V60     V64    9.999   .     S
V60     V39    10.0   1_565     S
V60     V95    10.001   1_565     S
V61     V47    10.0   1_455     S
V61     V52    10.0   1_455     S
V62     V33    10.0   1_565     S
V62     V48    10.0   1_455     S
V62     V49    10.0   1_565     S
V62     V51    10.0   1_465     S
V64     V35    10.0   1_565     S
V64     V51    10.0   1_565     S
V64     V49    10.0   1_565     S
V65     V94    10.0   .     S
V65     V81    10.0   .     S
V65     V69    9.999   .     S
V65     V78    10.0   .     S
V65     V77    10.0   .     S
V65     V96    10.0   .     S
V66     V93    10.0   1_565     S
V66     V82    10.0   .     S
V66     V70    9.999   .     S
V66     V77    10.0   1_565     S
V66     V78    10.0   .     S
V66     V95    10.0   1_565     S
V66     V53    10.001   1_565     S
V67     V96    10.0   .     S
V67     V83    10.0   .     S
V67     V71    9.999   .     S
V67     V80    10.0   .     S
V67     V79    10.0   .     S
V67     V94    10.0   1_655     S
V68     V95    10.0   1_565     S
V68     V84    10.0   .     S
V68     V72    9.999   .     S
V68     V79    10.0   1_565     S
V68     V80    10.0   .     S
V68     V93    10.0   1_665     S
V68     V55    10.001   1_565     S
V69     V74    10.0   .     S
V69     V73    10.0   .     S
V69     V85    10.0   .     S
V69     V90    10.0   .     S
V69     V92    10.0   .     S
V69     V101    10.001   1_554     S
V70     V73    10.0   1_565     S
V70     V74    10.0   .     S
V70     V86    10.0   .     S
V70     V89    10.0   1_565     S
V70     V91    10.0   1_565     S
V70     V102    10.001   1_554     S
V71     V76    10.0   .     S
V71     V75    10.0   .     S
V71     V87    10.0   .     S
V71     V92    10.0   .     S
V71     V90    10.0   1_655     S
V71     V103    10.001   1_554     S
V72     V75    10.0   1_565     S
V72     V76    10.0   .     S
V72     V88    10.0   .     S
V72     V91    10.0   1_565     S
V72     V89    10.0   1_665     S
V72     V104    10.001   1_554     S
V73     V91    10.0   .     S
V73     V70    10.0   1_545     S
V73     V77    9.999   .     S
V73     V87    10.0   .     S
V73     V85    10.0   .     S
V73     V109    10.001   1_554     S
V74     V92    10.0   .     S
V74     V78    9.999   .     S
V74     V88    10.0   .     S
V74     V86    10.0   .     S
V74     V110    10.001   1_554     S
V75     V89    10.0   1_655     S
V75     V72    10.0   1_545     S
V75     V79    9.999   .     S
V75     V85    10.0   1_655     S
V75     V87    10.0   .     S
V75     V111    10.001   1_554     S
V76     V90    10.0   1_655     S
V76     V80    9.999   .     S
V76     V86    10.0   1_655     S
V76     V88    10.0   .     S
V76     V112    10.001   1_554     S
V77     V81    10.0   .     S
V77     V66    10.0   1_545     S
V77     V83    10.0   .     S
V77     V95    10.0   .     S
V78     V82    10.0   .     S
V78     V84    10.0   .     S
V78     V96    10.0   .     S
V79     V83    10.0   .     S
V79     V68    10.0   1_545     S
V79     V81    10.0   1_655     S
V79     V93    10.0   1_655     S
V80     V84    10.0   .     S
V80     V82    10.0   1_655     S
V80     V94    10.0   1_655     S
V81     V85    9.999   .     S
V81     V94    10.0   .     S
V81     V93    10.0   .     S
V81     V79    10.0   1_455     S
V82     V86    9.999   .     S
V82     V93    10.0   1_565     S
V82     V94    10.0   .     S
V82     V80    10.0   1_455     S
V83     V87    9.999   .     S
V83     V96    10.0   .     S
V83     V95    10.0   .     S
V84     V88    9.999   .     S
V84     V95    10.0   1_565     S
V84     V96    10.0   .     S
V85     V89    10.0   .     S
V85     V90    10.0   .     S
V85     V75    10.0   1_455     S
V85     V117    10.001   1_554     S
V86     V90    10.0   .     S
V86     V89    10.0   1_565     S
V86     V76    10.0   1_455     S
V86     V118    10.001   1_554     S
V87     V91    10.0   .     S
V87     V92    10.0   .     S
V87     V119    10.001   1_554     S
V88     V92    10.0   .     S
V88     V91    10.0   1_565     S
V88     V120    10.001   1_554     S
V89     V75    10.0   1_455     S
V89     V86    10.0   1_545     S
V89     V93    9.999   .     S
V89     V70    10.0   1_545     S
V89     V72    10.0   1_445     S
V89     V125    10.001   1_554     S
V90     V76    10.0   1_455     S
V90     V94    9.999   .     S
V90     V71    10.0   1_455     S
V90     V126    10.001   1_554     S
V91     V88    10.0   1_545     S
V91     V95    9.999   .     S
V91     V72    10.0   1_545     S
V91     V70    10.0   1_545     S
V91     V127    10.001   1_554     S
V92     V96    9.999   .     S
V92     V128    10.001   1_554     S
V93     V58    10.001   1_545     S
V93     V66    10.0   1_545     S
V93     V82    10.0   1_545     S
V93     V79    10.0   1_455     S
V93     V68    10.0   1_445     S
V94     V80    10.0   1_455     S
V94     V67    10.0   1_455     S
V95     V60    10.001   1_545     S
V95     V68    10.0   1_545     S
V95     V84    10.0   1_545     S
V95     V66    10.0   1_545     S
V97     V122    10.0   .     S
V97     V124    10.0   .     S
V97     V115    10.0   .     S
V97     V101    9.999   .     S
V97     V106    10.0   .     S
V97     V105    10.0   .     S
V98     V121    10.0   1_565     S
V98     V123    10.0   1_565     S
V98     V116    10.0   .     S
V98     V102    9.999   .     S
V98     V105    10.0   1_565     S
V98     V106    10.0   .     S
V98     V25    10.001   1_565     S
V99     V124    10.0   .     S
V99     V122    10.0   1_655     S
V99     V113    10.0   1_655     S
V99     V103    9.999   .     S
V99     V108    10.0   .     S
V99     V107    10.0   .     S
V100     V123    10.0   1_565     S
V100     V121    10.0   1_665     S
V100     V114    10.0   1_655     S
V100     V104    9.999   .     S
V100     V107    10.0   1_565     S
V100     V108    10.0   .     S
V100     V27    10.001   1_565     S
V101     V110    10.0   .     S
V101     V109    10.0   .     S
V101     V119    10.0   .     S
V101     V128    10.0   .     S
V101     V126    10.0   .     S
V101     V69    10.001   1_556     S
V102     V109    10.0   1_565     S
V102     V110    10.0   .     S
V102     V120    10.0   .     S
V102     V127    10.0   1_565     S
V102     V125    10.0   1_565     S
V102     V70    10.001   1_556     S
V103     V112    10.0   .     S
V103     V111    10.0   .     S
V103     V117    10.0   1_655     S
V103     V126    10.0   1_655     S
V103     V128    10.0   .     S
V103     V71    10.001   1_556     S
V104     V111    10.0   1_565     S
V104     V112    10.0   .     S
V104     V118    10.0   1_655     S
V104     V125    10.0   1_665     S
V104     V127    10.0   1_565     S
V104     V72    10.001   1_556     S
V105     V121    10.0   .     S
V105     V113    10.0   .     S
V105     V115    10.0   .     S
V105     V109    9.999   .     S
V105     V98    10.0   1_545     S
V106     V122    10.0   .     S
V106     V114    10.0   .     S
V106     V116    10.0   .     S
V106     V110    9.999   .     S
V107     V123    10.0   .     S
V107     V115    10.0   .     S
V107     V113    10.0   1_655     S
V107     V111    9.999   .     S
V107     V100    10.0   1_545     S
V108     V124    10.0   .     S
V108     V116    10.0   .     S
V108     V114    10.0   1_655     S
V108     V112    9.999   .     S
V109     V125    10.0   .     S
V109     V102    10.0   1_545     S
V109     V117    10.0   .     S
V109     V119    10.0   .     S
V109     V73    10.001   1_556     S
V110     V126    10.0   .     S
V110     V118    10.0   .     S
V110     V120    10.0   .     S
V110     V74    10.001   1_556     S
V111     V127    10.0   .     S
V111     V104    10.0   1_545     S
V111     V119    10.0   .     S
V111     V117    10.0   1_655     S
V111     V75    10.001   1_556     S
V112     V128    10.0   .     S
V112     V120    10.0   .     S
V112     V118    10.0   1_655     S
V112     V76    10.001   1_556     S
V113     V99    10.0   1_455     S
V113     V107    10.0   1_455     S
V113     V117    9.999   .     S
V113     V122    10.0   .     S
V113     V121    10.0   .     S
V114     V100    10.0   1_455     S
V114     V108    10.0   1_455     S
V114     V118    9.999   .     S
V114     V121    10.0   1_565     S
V114     V122    10.0   .     S
V115     V119    9.999   .     S
V115     V124    10.0   .     S
V115     V123    10.0   .     S
V116     V120    9.999   .     S
V116     V123    10.0   1_565     S
V116     V124    10.0   .     S
V117     V125    10.0   .     S
V117     V103    10.0   1_455     S
V117     V126    10.0   .     S
V117     V111    10.0   1_455     S
V117     V85    10.001   1_556     S
V118     V126    10.0   .     S
V118     V104    10.0   1_455     S
V118     V125    10.0   1_565     S
V118     V112    10.0   1_455     S
V118     V86    10.001   1_556     S
V119     V127    10.0   .     S
V119     V128    10.0   .     S
V119     V87    10.001   1_556     S
V120     V128    10.0   .     S
V120     V127    10.0   1_565     S
V120     V88    10.001   1_556     S
V121     V98    10.0   1_545     S
V121     V100    10.0   1_445     S
V121     V125    9.999   .     S
V121     V114    10.0   1_545     S
V121     V18    10.001   1_545     S
V122     V99    10.0   1_455     S
V122     V126    9.999   .     S
V123     V100    10.0   1_545     S
V123     V98    10.0   1_545     S
V123     V127    9.999   .     S
V123     V116    10.0   1_545     S
V123     V20    10.001   1_545     S
V124     V128    9.999   .     S
V125     V118    10.0   1_545     S
V125     V104    10.0   1_445     S
V125     V102    10.0   1_545     S
V125     V89    10.001   1_556     S
V126     V103    10.0   1_455     S
V126     V90    10.001   1_556     S
V127     V120    10.0   1_545     S
V127     V102    10.0   1_545     S
V127     V104    10.0   1_545     S
V127     V91    10.001   1_556     S
V128     V92    10.001   1_556     S
