data_xfu
_audit_creation_date              2019-12-31
_audit_creation_method            'Pymatgen'
_symmetry_space_group_name_H-M    'P1'
_symmetry_Int_Tables_number       1
loop_
_symmetry_equiv_pos_as_xyz
  x,y,z
_cell_length_a                    37.8884
_cell_length_b                    37.8884
_cell_length_c                    29.729
_cell_angle_alpha                 90.0
_cell_angle_beta                 90.0
_cell_angle_gamma                 90.0
loop_
_atom_site_label
_atom_site_type_symbol
_atom_site_fract_x
_atom_site_fract_y
_atom_site_fract_z
V1     V     0.1673   0.0   0.8689
V2     V     0.1673   0.5   0.8689
V3     V     0.6673   0.0   0.8689
V4     V     0.6673   0.5   0.8689
V5     V     0.3327   0.0   0.1311
V6     V     0.3327   0.5   0.1311
V7     V     0.8327   0.0   0.1311
V8     V     0.8327   0.5   0.1311
V9     V     0.0827   0.25   0.8689
V10     V     0.0827   0.75   0.8689
V11     V     0.5827   0.25   0.8689
V12     V     0.5827   0.75   0.8689
V13     V     0.4173   0.25   0.1311
V14     V     0.4173   0.75   0.1311
V15     V     0.9173   0.25   0.1311
V16     V     0.9173   0.75   0.1311
V17     V     0.25   0.1673   0.6311
V18     V     0.25   0.6673   0.6311
V19     V     0.75   0.1673   0.6311
V20     V     0.75   0.6673   0.6311
V21     V     0.25   0.3327   0.3689
V22     V     0.25   0.8327   0.3689
V23     V     0.75   0.3327   0.3689
V24     V     0.75   0.8327   0.3689
V25     V     0.0   0.0827   0.6311
V26     V     0.0   0.5827   0.6311
V27     V     0.5   0.0827   0.6311
V28     V     0.5   0.5827   0.6311
V29     V     0.0   0.4173   0.3689
V30     V     0.0   0.9173   0.3689
V31     V     0.5   0.4173   0.3689
V32     V     0.5   0.9173   0.3689
loop_
_geom_bond_atom_site_label_1
_geom_bond_atom_site_label_2
_geom_bond_distance
_geom_bond_site_symmetry_2
_ccdc_geom_bond_type
V1     V25    10.0   .     S
V1     V17    10.0   .     S
V1     V5    10.0   1_556     S
V1     V10    10.0   1_545     S
V1     V9    10.0   .     S
V2     V26    10.0   .     S
V2     V18    10.0   .     S
V2     V6    10.0   1_556     S
V2     V9    10.0   .     S
V2     V10    10.0   .     S
V3     V27    10.0   .     S
V3     V19    10.0   .     S
V3     V7    10.0   1_556     S
V3     V12    10.0   1_545     S
V3     V11    10.0   .     S
V4     V28    10.0   .     S
V4     V20    10.0   .     S
V4     V8    10.0   1_556     S
V4     V11    10.0   .     S
V4     V12    10.0   .     S
V5     V1    10.0   1_554     S
V5     V13    10.0   .     S
V5     V14    10.0   1_545     S
V5     V22    10.0   1_545     S
V5     V32    10.0   1_545     S
V6     V2    10.0   1_554     S
V6     V14    10.0   .     S
V6     V13    10.0   .     S
V6     V21    10.0   .     S
V6     V31    10.0   .     S
V7     V3    10.0   1_554     S
V7     V15    10.0   .     S
V7     V16    10.0   1_545     S
V7     V24    10.0   1_545     S
V7     V30    10.0   1_645     S
V8     V4    10.0   1_554     S
V8     V16    10.0   .     S
V8     V15    10.0   .     S
V8     V23    10.0   .     S
V8     V29    10.0   1_655     S
V9     V17    10.0   .     S
V9     V25    10.0   .     S
V9     V15    10.0   1_456     S
V10     V18    10.0   .     S
V10     V26    10.0   .     S
V10     V1    10.0   1_565     S
V10     V16    10.0   1_456     S
V11     V19    10.0   .     S
V11     V27    10.0   .     S
V11     V13    10.0   1_556     S
V12     V20    10.0   .     S
V12     V28    10.0   .     S
V12     V3    10.0   1_565     S
V12     V14    10.0   1_556     S
V13     V11    10.0   1_554     S
V13     V31    10.0   .     S
V13     V21    10.0   .     S
V14     V12    10.0   1_554     S
V14     V5    10.0   1_565     S
V14     V32    10.0   .     S
V14     V22    10.0   .     S
V15     V9    10.0   1_654     S
V15     V29    10.0   1_655     S
V15     V23    10.0   .     S
V16     V10    10.0   1_654     S
V16     V7    10.0   1_565     S
V16     V30    10.0   1_655     S
V16     V24    10.0   .     S
V17     V21    10.0   .     S
V17     V27    10.0   .     S
V17     V25    10.0   .     S
V18     V22    10.0   .     S
V18     V28    10.0   .     S
V18     V26    10.0   .     S
V19     V23    10.0   .     S
V19     V25    10.0   1_655     S
V19     V27    10.0   .     S
V20     V24    10.0   .     S
V20     V26    10.0   1_655     S
V20     V28    10.0   .     S
V21     V31    10.0   .     S
V21     V29    10.0   .     S
V22     V32    10.0   .     S
V22     V30    10.0   .     S
V22     V5    10.0   1_565     S
V23     V29    10.0   1_655     S
V23     V31    10.0   .     S
V24     V30    10.0   1_655     S
V24     V32    10.0   .     S
V24     V7    10.0   1_565     S
V25     V30    10.0   1_545     S
V25     V19    10.0   1_455     S
V26     V29    10.0   .     S
V26     V20    10.0   1_455     S
V27     V32    10.0   1_545     S
V28     V31    10.0   .     S
V29     V23    10.0   1_455     S
V29     V15    10.0   1_455     S
V29     V8    10.0   1_455     S
V30     V25    10.0   1_565     S
V30     V24    10.0   1_455     S
V30     V16    10.0   1_455     S
V30     V7    10.0   1_465     S
V32     V27    10.0   1_565     S
V32     V5    10.0   1_565     S
