data_xfw
_audit_creation_date              2019-12-31
_audit_creation_method            'Pymatgen'
_symmetry_space_group_name_H-M    'P1'
_symmetry_Int_Tables_number       1
loop_
_symmetry_equiv_pos_as_xyz
  x,y,z
_cell_length_a                    39.4182
_cell_length_b                    39.4182
_cell_length_c                    30.4817
_cell_angle_alpha                 90.0
_cell_angle_beta                 90.0
_cell_angle_gamma                 90.0
loop_
_atom_site_label
_atom_site_type_symbol
_atom_site_fract_x
_atom_site_fract_y
_atom_site_fract_z
V1     V     0.375   0.4784   0.616
V2     V     0.375   0.9784   0.616
V3     V     0.875   0.4784   0.616
V4     V     0.875   0.9784   0.616
V5     V     0.4784   0.375   0.884
V6     V     0.4784   0.875   0.884
V7     V     0.9784   0.375   0.884
V8     V     0.9784   0.875   0.884
V9     V     0.125   0.0216   0.616
V10     V     0.125   0.5216   0.616
V11     V     0.625   0.0216   0.616
V12     V     0.625   0.5216   0.616
V13     V     0.0216   0.125   0.884
V14     V     0.0216   0.625   0.884
V15     V     0.5216   0.125   0.884
V16     V     0.5216   0.625   0.884
V17     V     0.4784   0.125   0.384
V18     V     0.4784   0.625   0.384
V19     V     0.9784   0.125   0.384
V20     V     0.9784   0.625   0.384
V21     V     0.375   0.0216   0.116
V22     V     0.375   0.5216   0.116
V23     V     0.875   0.0216   0.116
V24     V     0.875   0.5216   0.116
V25     V     0.125   0.4784   0.116
V26     V     0.125   0.9784   0.116
V27     V     0.625   0.4784   0.116
V28     V     0.625   0.9784   0.116
V29     V     0.0216   0.375   0.384
V30     V     0.0216   0.875   0.384
V31     V     0.5216   0.375   0.384
V32     V     0.5216   0.875   0.384
loop_
_geom_bond_atom_site_label_1
_geom_bond_atom_site_label_2
_geom_bond_distance
_geom_bond_site_symmetry_2
_ccdc_geom_bond_type
V1     V18    10.0   .     S
V1     V5    10.0   .     S
V1     V10    10.0   .     S
V1     V12    10.0   .     S
V1     V31    10.0   .     S
V2     V17    10.0   1_565     S
V2     V6    10.0   .     S
V2     V9    10.0   1_565     S
V2     V11    10.0   1_565     S
V2     V32    10.0   .     S
V3     V20    10.0   .     S
V3     V7    10.0   .     S
V3     V12    10.0   .     S
V3     V10    10.0   1_655     S
V3     V29    10.0   1_655     S
V4     V19    10.0   1_565     S
V4     V8    10.0   .     S
V4     V11    10.0   1_565     S
V4     V9    10.0   1_665     S
V4     V30    10.0   1_655     S
V5     V27    10.0   1_556     S
V5     V15    10.0   .     S
V5     V16    10.0   .     S
V5     V22    10.0   1_556     S
V6     V28    10.0   1_556     S
V6     V16    10.0   .     S
V6     V15    10.0   1_565     S
V6     V21    10.0   1_566     S
V7     V25    10.0   1_656     S
V7     V13    10.0   1_655     S
V7     V14    10.0   1_655     S
V7     V24    10.0   1_556     S
V8     V26    10.0   1_656     S
V8     V14    10.0   1_655     S
V8     V13    10.0   1_665     S
V8     V23    10.0   1_566     S
V9     V30    10.0   1_545     S
V9     V13    10.0   .     S
V9     V2    10.0   1_545     S
V9     V4    10.0   1_445     S
V9     V19    10.0   1_455     S
V10     V29    10.0   .     S
V10     V14    10.0   .     S
V10     V3    10.0   1_455     S
V10     V20    10.0   1_455     S
V11     V32    10.0   1_545     S
V11     V15    10.0   .     S
V11     V4    10.0   1_545     S
V11     V2    10.0   1_545     S
V11     V17    10.0   .     S
V12     V31    10.0   .     S
V12     V16    10.0   .     S
V12     V18    10.0   .     S
V13     V23    10.0   1_456     S
V13     V7    10.0   1_455     S
V13     V8    10.0   1_445     S
V13     V26    10.0   1_546     S
V14     V24    10.0   1_456     S
V14     V8    10.0   1_455     S
V14     V7    10.0   1_455     S
V14     V25    10.0   1_556     S
V15     V21    10.0   1_556     S
V15     V6    10.0   1_545     S
V15     V28    10.0   1_546     S
V16     V22    10.0   1_556     S
V16     V27    10.0   1_556     S
V17     V2    10.0   1_545     S
V17     V21    10.0   .     S
V17     V31    10.0   .     S
V17     V32    10.0   1_545     S
V18     V22    10.0   .     S
V18     V32    10.0   .     S
V18     V31    10.0   .     S
V19     V4    10.0   1_545     S
V19     V9    10.0   1_655     S
V19     V23    10.0   .     S
V19     V29    10.0   1_655     S
V19     V30    10.0   1_645     S
V20     V10    10.0   1_655     S
V20     V24    10.0   .     S
V20     V30    10.0   1_655     S
V20     V29    10.0   1_655     S
V21     V15    10.0   1_554     S
V21     V6    10.0   1_544     S
V21     V26    10.0   1_545     S
V21     V28    10.0   1_545     S
V22     V16    10.0   1_554     S
V22     V5    10.0   1_554     S
V22     V25    10.0   .     S
V22     V27    10.0   .     S
V23     V13    10.0   1_654     S
V23     V8    10.0   1_544     S
V23     V28    10.0   1_545     S
V23     V26    10.0   1_645     S
V24     V14    10.0   1_654     S
V24     V7    10.0   1_554     S
V24     V27    10.0   .     S
V24     V25    10.0   1_655     S
V25     V7    10.0   1_454     S
V25     V14    10.0   1_554     S
V25     V29    10.0   .     S
V25     V24    10.0   1_455     S
V26     V8    10.0   1_454     S
V26     V13    10.0   1_564     S
V26     V30    10.0   .     S
V26     V21    10.0   1_565     S
V26     V23    10.0   1_465     S
V27     V5    10.0   1_554     S
V27     V16    10.0   1_554     S
V27     V31    10.0   .     S
V28     V6    10.0   1_554     S
V28     V15    10.0   1_564     S
V28     V32    10.0   .     S
V28     V23    10.0   1_565     S
V28     V21    10.0   1_565     S
V29     V3    10.0   1_455     S
V29     V19    10.0   1_455     S
V29     V20    10.0   1_455     S
V30     V9    10.0   1_565     S
V30     V4    10.0   1_455     S
V30     V20    10.0   1_455     S
V30     V19    10.0   1_465     S
V32     V11    10.0   1_565     S
V32     V17    10.0   1_565     S
