data_xfy
_audit_creation_date              2019-12-31
_audit_creation_method            'Pymatgen'
_symmetry_space_group_name_H-M    'P1'
_symmetry_Int_Tables_number       1
loop_
_symmetry_equiv_pos_as_xyz
  x,y,z
_cell_length_a                    39.3554
_cell_length_b                    39.3554
_cell_length_c                    30.5849
_cell_angle_alpha                 90.0
_cell_angle_beta                 90.0
_cell_angle_gamma                 90.0
loop_
_atom_site_label
_atom_site_type_symbol
_atom_site_fract_x
_atom_site_fract_y
_atom_site_fract_z
V1     V     0.375   0.4773   0.3844
V2     V     0.375   0.9773   0.3844
V3     V     0.875   0.4773   0.3844
V4     V     0.875   0.9773   0.3844
V5     V     0.2727   0.375   0.1156
V6     V     0.2727   0.875   0.1156
V7     V     0.7727   0.375   0.1156
V8     V     0.7727   0.875   0.1156
V9     V     0.125   0.0227   0.3844
V10     V     0.125   0.5227   0.3844
V11     V     0.625   0.0227   0.3844
V12     V     0.625   0.5227   0.3844
V13     V     0.2273   0.125   0.1156
V14     V     0.2273   0.625   0.1156
V15     V     0.7273   0.125   0.1156
V16     V     0.7273   0.625   0.1156
V17     V     0.4773   0.125   0.6156
V18     V     0.4773   0.625   0.6156
V19     V     0.9773   0.125   0.6156
V20     V     0.9773   0.625   0.6156
V21     V     0.375   0.2273   0.8844
V22     V     0.375   0.7273   0.8844
V23     V     0.875   0.2273   0.8844
V24     V     0.875   0.7273   0.8844
V25     V     0.0227   0.375   0.6156
V26     V     0.0227   0.875   0.6156
V27     V     0.5227   0.375   0.6156
V28     V     0.5227   0.875   0.6156
V29     V     0.125   0.2727   0.8844
V30     V     0.125   0.7727   0.8844
V31     V     0.625   0.2727   0.8844
V32     V     0.625   0.7727   0.8844
loop_
_geom_bond_atom_site_label_1
_geom_bond_atom_site_label_2
_geom_bond_distance
_geom_bond_site_symmetry_2
_ccdc_geom_bond_type
V1     V5    10.0   .     S
V1     V10    10.0   .     S
V1     V12    10.0   .     S
V1     V27    10.0   .     S
V1     V18    10.0   .     S
V2     V6    10.0   .     S
V2     V9    10.0   1_565     S
V2     V11    10.0   1_565     S
V2     V28    10.0   .     S
V2     V17    10.0   1_565     S
V3     V7    10.0   .     S
V3     V12    10.0   .     S
V3     V10    10.0   1_655     S
V3     V25    10.0   1_655     S
V3     V20    10.0   .     S
V4     V8    10.0   .     S
V4     V11    10.0   1_565     S
V4     V9    10.0   1_665     S
V4     V26    10.0   1_655     S
V4     V19    10.0   1_565     S
V5     V29    10.0   1_554     S
V5     V21    10.0   1_554     S
V5     V14    10.0   .     S
V5     V13    10.0   .     S
V6     V30    10.0   1_554     S
V6     V22    10.0   1_554     S
V6     V13    10.0   1_565     S
V6     V14    10.0   .     S
V7     V31    10.0   1_554     S
V7     V23    10.0   1_554     S
V7     V16    10.0   .     S
V7     V15    10.0   .     S
V8     V32    10.0   1_554     S
V8     V24    10.0   1_554     S
V8     V15    10.0   1_565     S
V8     V16    10.0   .     S
V9     V13    10.0   .     S
V9     V2    10.0   1_545     S
V9     V4    10.0   1_445     S
V9     V19    10.0   1_455     S
V9     V26    10.0   1_545     S
V10     V14    10.0   .     S
V10     V3    10.0   1_455     S
V10     V20    10.0   1_455     S
V10     V25    10.0   .     S
V11     V15    10.0   .     S
V11     V4    10.0   1_545     S
V11     V2    10.0   1_545     S
V11     V17    10.0   .     S
V11     V28    10.0   1_545     S
V12     V16    10.0   .     S
V12     V18    10.0   .     S
V12     V27    10.0   .     S
V13     V29    10.0   1_554     S
V13     V21    10.0   1_554     S
V13     V6    10.0   1_545     S
V14     V30    10.0   1_554     S
V14     V22    10.0   1_554     S
V15     V31    10.0   1_554     S
V15     V23    10.0   1_554     S
V15     V8    10.0   1_545     S
V16     V32    10.0   1_554     S
V16     V24    10.0   1_554     S
V17     V21    10.0   .     S
V17     V27    10.0   .     S
V17     V28    10.0   1_545     S
V17     V2    10.0   1_545     S
V18     V22    10.0   .     S
V18     V28    10.0   .     S
V18     V27    10.0   .     S
V19     V23    10.0   .     S
V19     V25    10.0   1_655     S
V19     V26    10.0   1_645     S
V19     V4    10.0   1_545     S
V19     V9    10.0   1_655     S
V20     V24    10.0   .     S
V20     V26    10.0   1_655     S
V20     V25    10.0   1_655     S
V20     V10    10.0   1_655     S
V21     V5    10.0   1_556     S
V21     V13    10.0   1_556     S
V21     V31    10.0   .     S
V21     V29    10.0   .     S
V22     V6    10.0   1_556     S
V22     V14    10.0   1_556     S
V22     V32    10.0   .     S
V22     V30    10.0   .     S
V23     V7    10.0   1_556     S
V23     V15    10.0   1_556     S
V23     V29    10.0   1_655     S
V23     V31    10.0   .     S
V24     V8    10.0   1_556     S
V24     V16    10.0   1_556     S
V24     V30    10.0   1_655     S
V24     V32    10.0   .     S
V25     V29    10.0   .     S
V25     V19    10.0   1_455     S
V25     V20    10.0   1_455     S
V25     V3    10.0   1_455     S
V26     V30    10.0   .     S
V26     V20    10.0   1_455     S
V26     V19    10.0   1_465     S
V26     V4    10.0   1_455     S
V26     V9    10.0   1_565     S
V27     V31    10.0   .     S
V28     V32    10.0   .     S
V28     V17    10.0   1_565     S
V28     V11    10.0   1_565     S
V29     V5    10.0   1_556     S
V29     V13    10.0   1_556     S
V29     V23    10.0   1_455     S
V30     V6    10.0   1_556     S
V30     V14    10.0   1_556     S
V30     V24    10.0   1_455     S
V31     V7    10.0   1_556     S
V31     V15    10.0   1_556     S
V32     V8    10.0   1_556     S
V32     V16    10.0   1_556     S
