data_xii
_audit_creation_date              2019-12-31
_audit_creation_method            'Pymatgen'
_symmetry_space_group_name_H-M    'P1'
_symmetry_Int_Tables_number       1
loop_
_symmetry_equiv_pos_as_xyz
  x,y,z
_cell_length_a                    37.742
_cell_length_b                    37.742
_cell_length_c                    37.742
_cell_angle_alpha                 90.0
_cell_angle_beta                 90.0
_cell_angle_gamma                 90.0
loop_
_atom_site_label
_atom_site_type_symbol
_atom_site_fract_x
_atom_site_fract_y
_atom_site_fract_z
V1     V     0.4361   0.25   0.25
V2     V     0.4361   0.25   0.75
V3     V     0.4361   0.75   0.25
V4     V     0.4361   0.75   0.75
V5     V     0.9361   0.25   0.25
V6     V     0.9361   0.25   0.75
V7     V     0.9361   0.75   0.25
V8     V     0.9361   0.75   0.75
V9     V     0.0639   0.25   0.25
V10     V     0.0639   0.25   0.75
V11     V     0.0639   0.75   0.25
V12     V     0.0639   0.75   0.75
V13     V     0.5639   0.25   0.25
V14     V     0.5639   0.25   0.75
V15     V     0.5639   0.75   0.25
V16     V     0.5639   0.75   0.75
V17     V     0.25   0.4361   0.25
V18     V     0.25   0.4361   0.75
V19     V     0.25   0.9361   0.25
V20     V     0.25   0.9361   0.75
V21     V     0.75   0.4361   0.25
V22     V     0.75   0.4361   0.75
V23     V     0.75   0.9361   0.25
V24     V     0.75   0.9361   0.75
V25     V     0.25   0.0639   0.25
V26     V     0.25   0.0639   0.75
V27     V     0.25   0.5639   0.25
V28     V     0.25   0.5639   0.75
V29     V     0.75   0.0639   0.25
V30     V     0.75   0.0639   0.75
V31     V     0.75   0.5639   0.25
V32     V     0.75   0.5639   0.75
V33     V     0.25   0.25   0.4361
V34     V     0.25   0.25   0.9361
V35     V     0.25   0.75   0.4361
V36     V     0.25   0.75   0.9361
V37     V     0.75   0.25   0.4361
V38     V     0.75   0.25   0.9361
V39     V     0.75   0.75   0.4361
V40     V     0.75   0.75   0.9361
V41     V     0.25   0.25   0.0639
V42     V     0.25   0.25   0.5639
V43     V     0.25   0.75   0.0639
V44     V     0.25   0.75   0.5639
V45     V     0.75   0.25   0.0639
V46     V     0.75   0.25   0.5639
V47     V     0.75   0.75   0.0639
V48     V     0.75   0.75   0.5639
V49     V     0.1861   0.0   0.0
V50     V     0.1861   0.0   0.5
V51     V     0.1861   0.5   0.0
V52     V     0.1861   0.5   0.5
V53     V     0.6861   0.0   0.0
V54     V     0.6861   0.0   0.5
V55     V     0.6861   0.5   0.0
V56     V     0.6861   0.5   0.5
V57     V     0.3139   0.0   0.0
V58     V     0.3139   0.0   0.5
V59     V     0.3139   0.5   0.0
V60     V     0.3139   0.5   0.5
V61     V     0.8139   0.0   0.0
V62     V     0.8139   0.0   0.5
V63     V     0.8139   0.5   0.0
V64     V     0.8139   0.5   0.5
V65     V     0.0   0.1861   0.0
V66     V     0.0   0.1861   0.5
V67     V     0.0   0.6861   0.0
V68     V     0.0   0.6861   0.5
V69     V     0.5   0.1861   0.0
V70     V     0.5   0.1861   0.5
V71     V     0.5   0.6861   0.0
V72     V     0.5   0.6861   0.5
V73     V     0.0   0.3139   0.0
V74     V     0.0   0.3139   0.5
V75     V     0.0   0.8139   0.0
V76     V     0.0   0.8139   0.5
V77     V     0.5   0.3139   0.0
V78     V     0.5   0.3139   0.5
V79     V     0.5   0.8139   0.0
V80     V     0.5   0.8139   0.5
V81     V     0.0   0.0   0.1861
V82     V     0.0   0.0   0.6861
V83     V     0.0   0.5   0.1861
V84     V     0.0   0.5   0.6861
V85     V     0.5   0.0   0.1861
V86     V     0.5   0.0   0.6861
V87     V     0.5   0.5   0.1861
V88     V     0.5   0.5   0.6861
V89     V     0.0   0.0   0.3139
V90     V     0.0   0.0   0.8139
V91     V     0.0   0.5   0.3139
V92     V     0.0   0.5   0.8139
V93     V     0.5   0.0   0.3139
V94     V     0.5   0.0   0.8139
V95     V     0.5   0.5   0.3139
V96     V     0.5   0.5   0.8139
loop_
_geom_bond_atom_site_label_1
_geom_bond_atom_site_label_2
_geom_bond_distance
_geom_bond_site_symmetry_2
_ccdc_geom_bond_type
V1     V41    9.936   .     S
V1     V25    9.936   .     S
V1     V33    9.936   .     S
V1     V17    9.936   .     S
V1     V78    10.032   .     S
V1     V70    10.032   .     S
V1     V87    10.032   .     S
V1     V95    10.032   .     S
V1     V69    10.032   .     S
V1     V77    10.032   .     S
V1     V93    10.032   .     S
V1     V85    10.032   .     S
V2     V42    9.936   .     S
V2     V26    9.936   .     S
V2     V34    9.936   .     S
V2     V18    9.936   .     S
V2     V77    10.032   1_556     S
V2     V69    10.032   1_556     S
V2     V88    10.032   .     S
V2     V96    10.032   .     S
V2     V70    10.032   .     S
V2     V78    10.032   .     S
V2     V94    10.032   .     S
V2     V86    10.032   .     S
V3     V43    9.936   .     S
V3     V27    9.936   .     S
V3     V35    9.936   .     S
V3     V19    9.936   .     S
V3     V80    10.032   .     S
V3     V72    10.032   .     S
V3     V85    10.032   1_565     S
V3     V93    10.032   1_565     S
V3     V71    10.032   .     S
V3     V79    10.032   .     S
V3     V95    10.032   .     S
V3     V87    10.032   .     S
V4     V44    9.936   .     S
V4     V28    9.936   .     S
V4     V36    9.936   .     S
V4     V20    9.936   .     S
V4     V79    10.032   1_556     S
V4     V71    10.032   1_556     S
V4     V86    10.032   1_565     S
V4     V94    10.032   1_565     S
V4     V72    10.032   .     S
V4     V80    10.032   .     S
V4     V96    10.032   .     S
V4     V88    10.032   .     S
V5     V45    9.936   .     S
V5     V29    9.936   .     S
V5     V37    9.936   .     S
V5     V21    9.936   .     S
V5     V74    10.032   1_655     S
V5     V66    10.032   1_655     S
V5     V83    10.032   1_655     S
V5     V91    10.032   1_655     S
V5     V65    10.032   1_655     S
V5     V73    10.032   1_655     S
V5     V89    10.032   1_655     S
V5     V81    10.032   1_655     S
V6     V46    9.936   .     S
V6     V30    9.936   .     S
V6     V38    9.936   .     S
V6     V22    9.936   .     S
V6     V73    10.032   1_656     S
V6     V65    10.032   1_656     S
V6     V84    10.032   1_655     S
V6     V92    10.032   1_655     S
V6     V66    10.032   1_655     S
V6     V74    10.032   1_655     S
V6     V90    10.032   1_655     S
V6     V82    10.032   1_655     S
V7     V47    9.936   .     S
V7     V31    9.936   .     S
V7     V39    9.936   .     S
V7     V23    9.936   .     S
V7     V76    10.032   1_655     S
V7     V68    10.032   1_655     S
V7     V81    10.032   1_665     S
V7     V89    10.032   1_665     S
V7     V67    10.032   1_655     S
V7     V75    10.032   1_655     S
V7     V91    10.032   1_655     S
V7     V83    10.032   1_655     S
V8     V48    9.936   .     S
V8     V32    9.936   .     S
V8     V40    9.936   .     S
V8     V24    9.936   .     S
V8     V75    10.032   1_656     S
V8     V67    10.032   1_656     S
V8     V82    10.032   1_665     S
V8     V90    10.032   1_665     S
V8     V68    10.032   1_655     S
V8     V76    10.032   1_655     S
V8     V92    10.032   1_655     S
V8     V84    10.032   1_655     S
V9     V17    9.936   .     S
V9     V33    9.936   .     S
V9     V41    9.936   .     S
V9     V25    9.936   .     S
V9     V66    10.032   .     S
V9     V74    10.032   .     S
V9     V91    10.032   .     S
V9     V83    10.032   .     S
V9     V73    10.032   .     S
V9     V65    10.032   .     S
V9     V81    10.032   .     S
V9     V89    10.032   .     S
V10     V18    9.936   .     S
V10     V34    9.936   .     S
V10     V42    9.936   .     S
V10     V26    9.936   .     S
V10     V65    10.032   1_556     S
V10     V73    10.032   1_556     S
V10     V92    10.032   .     S
V10     V84    10.032   .     S
V10     V74    10.032   .     S
V10     V66    10.032   .     S
V10     V82    10.032   .     S
V10     V90    10.032   .     S
V11     V19    9.936   .     S
V11     V35    9.936   .     S
V11     V43    9.936   .     S
V11     V27    9.936   .     S
V11     V68    10.032   .     S
V11     V76    10.032   .     S
V11     V89    10.032   1_565     S
V11     V81    10.032   1_565     S
V11     V75    10.032   .     S
V11     V67    10.032   .     S
V11     V83    10.032   .     S
V11     V91    10.032   .     S
V12     V20    9.936   .     S
V12     V36    9.936   .     S
V12     V44    9.936   .     S
V12     V28    9.936   .     S
V12     V67    10.032   1_556     S
V12     V75    10.032   1_556     S
V12     V90    10.032   1_565     S
V12     V82    10.032   1_565     S
V12     V76    10.032   .     S
V12     V68    10.032   .     S
V12     V84    10.032   .     S
V12     V92    10.032   .     S
V13     V21    9.936   .     S
V13     V37    9.936   .     S
V13     V45    9.936   .     S
V13     V29    9.936   .     S
V13     V70    10.032   .     S
V13     V78    10.032   .     S
V13     V95    10.032   .     S
V13     V87    10.032   .     S
V13     V77    10.032   .     S
V13     V69    10.032   .     S
V13     V85    10.032   .     S
V13     V93    10.032   .     S
V14     V22    9.936   .     S
V14     V38    9.936   .     S
V14     V46    9.936   .     S
V14     V30    9.936   .     S
V14     V69    10.032   1_556     S
V14     V77    10.032   1_556     S
V14     V96    10.032   .     S
V14     V88    10.032   .     S
V14     V78    10.032   .     S
V14     V70    10.032   .     S
V14     V86    10.032   .     S
V14     V94    10.032   .     S
V15     V23    9.936   .     S
V15     V39    9.936   .     S
V15     V47    9.936   .     S
V15     V31    9.936   .     S
V15     V72    10.032   .     S
V15     V80    10.032   .     S
V15     V93    10.032   1_565     S
V15     V85    10.032   1_565     S
V15     V79    10.032   .     S
V15     V71    10.032   .     S
V15     V87    10.032   .     S
V15     V95    10.032   .     S
V16     V24    9.936   .     S
V16     V40    9.936   .     S
V16     V48    9.936   .     S
V16     V32    9.936   .     S
V16     V71    10.032   1_556     S
V16     V79    10.032   1_556     S
V16     V94    10.032   1_565     S
V16     V86    10.032   1_565     S
V16     V80    10.032   .     S
V16     V72    10.032   .     S
V16     V88    10.032   .     S
V16     V96    10.032   .     S
V17     V41    9.936   .     S
V17     V33    9.936   .     S
V17     V52    10.032   .     S
V17     V60    10.032   .     S
V17     V95    10.032   .     S
V17     V87    10.032   .     S
V17     V59    10.032   .     S
V17     V51    10.032   .     S
V17     V83    10.032   .     S
V17     V91    10.032   .     S
V18     V42    9.936   .     S
V18     V34    9.936   .     S
V18     V51    10.032   1_556     S
V18     V59    10.032   1_556     S
V18     V96    10.032   .     S
V18     V88    10.032   .     S
V18     V60    10.032   .     S
V18     V52    10.032   .     S
V18     V84    10.032   .     S
V18     V92    10.032   .     S
V19     V43    9.936   .     S
V19     V35    9.936   .     S
V19     V50    10.032   1_565     S
V19     V58    10.032   1_565     S
V19     V93    10.032   1_565     S
V19     V85    10.032   1_565     S
V19     V57    10.032   1_565     S
V19     V49    10.032   1_565     S
V19     V81    10.032   1_565     S
V19     V89    10.032   1_565     S
V20     V44    9.936   .     S
V20     V36    9.936   .     S
V20     V49    10.032   1_566     S
V20     V57    10.032   1_566     S
V20     V94    10.032   1_565     S
V20     V86    10.032   1_565     S
V20     V58    10.032   1_565     S
V20     V50    10.032   1_565     S
V20     V82    10.032   1_565     S
V20     V90    10.032   1_565     S
V21     V45    9.936   .     S
V21     V37    9.936   .     S
V21     V56    10.032   .     S
V21     V64    10.032   .     S
V21     V91    10.032   1_655     S
V21     V83    10.032   1_655     S
V21     V63    10.032   .     S
V21     V55    10.032   .     S
V21     V87    10.032   .     S
V21     V95    10.032   .     S
V22     V46    9.936   .     S
V22     V38    9.936   .     S
V22     V55    10.032   1_556     S
V22     V63    10.032   1_556     S
V22     V92    10.032   1_655     S
V22     V84    10.032   1_655     S
V22     V64    10.032   .     S
V22     V56    10.032   .     S
V22     V88    10.032   .     S
V22     V96    10.032   .     S
V23     V47    9.936   .     S
V23     V39    9.936   .     S
V23     V54    10.032   1_565     S
V23     V62    10.032   1_565     S
V23     V89    10.032   1_665     S
V23     V81    10.032   1_665     S
V23     V61    10.032   1_565     S
V23     V53    10.032   1_565     S
V23     V85    10.032   1_565     S
V23     V93    10.032   1_565     S
V24     V48    9.936   .     S
V24     V40    9.936   .     S
V24     V53    10.032   1_566     S
V24     V61    10.032   1_566     S
V24     V90    10.032   1_665     S
V24     V82    10.032   1_665     S
V24     V62    10.032   1_565     S
V24     V54    10.032   1_565     S
V24     V86    10.032   1_565     S
V24     V94    10.032   1_565     S
V25     V33    9.936   .     S
V25     V41    9.936   .     S
V25     V58    10.032   .     S
V25     V50    10.032   .     S
V25     V85    10.032   .     S
V25     V93    10.032   .     S
V25     V49    10.032   .     S
V25     V57    10.032   .     S
V25     V89    10.032   .     S
V25     V81    10.032   .     S
V26     V34    9.936   .     S
V26     V42    9.936   .     S
V26     V57    10.032   1_556     S
V26     V49    10.032   1_556     S
V26     V86    10.032   .     S
V26     V94    10.032   .     S
V26     V50    10.032   .     S
V26     V58    10.032   .     S
V26     V90    10.032   .     S
V26     V82    10.032   .     S
V27     V35    9.936   .     S
V27     V43    9.936   .     S
V27     V60    10.032   .     S
V27     V52    10.032   .     S
V27     V87    10.032   .     S
V27     V95    10.032   .     S
V27     V51    10.032   .     S
V27     V59    10.032   .     S
V27     V91    10.032   .     S
V27     V83    10.032   .     S
V28     V36    9.936   .     S
V28     V44    9.936   .     S
V28     V59    10.032   1_556     S
V28     V51    10.032   1_556     S
V28     V88    10.032   .     S
V28     V96    10.032   .     S
V28     V52    10.032   .     S
V28     V60    10.032   .     S
V28     V92    10.032   .     S
V28     V84    10.032   .     S
V29     V37    9.936   .     S
V29     V45    9.936   .     S
V29     V62    10.032   .     S
V29     V54    10.032   .     S
V29     V81    10.032   1_655     S
V29     V89    10.032   1_655     S
V29     V53    10.032   .     S
V29     V61    10.032   .     S
V29     V93    10.032   .     S
V29     V85    10.032   .     S
V30     V38    9.936   .     S
V30     V46    9.936   .     S
V30     V61    10.032   1_556     S
V30     V53    10.032   1_556     S
V30     V82    10.032   1_655     S
V30     V90    10.032   1_655     S
V30     V54    10.032   .     S
V30     V62    10.032   .     S
V30     V94    10.032   .     S
V30     V86    10.032   .     S
V31     V39    9.936   .     S
V31     V47    9.936   .     S
V31     V64    10.032   .     S
V31     V56    10.032   .     S
V31     V83    10.032   1_655     S
V31     V91    10.032   1_655     S
V31     V55    10.032   .     S
V31     V63    10.032   .     S
V31     V95    10.032   .     S
V31     V87    10.032   .     S
V32     V40    9.936   .     S
V32     V48    9.936   .     S
V32     V63    10.032   1_556     S
V32     V55    10.032   1_556     S
V32     V84    10.032   1_655     S
V32     V92    10.032   1_655     S
V32     V56    10.032   .     S
V32     V64    10.032   .     S
V32     V96    10.032   .     S
V32     V88    10.032   .     S
V33     V60    10.032   .     S
V33     V52    10.032   .     S
V33     V70    10.032   .     S
V33     V78    10.032   .     S
V33     V50    10.032   .     S
V33     V58    10.032   .     S
V33     V74    10.032   .     S
V33     V66    10.032   .     S
V34     V59    10.032   1_556     S
V34     V51    10.032   1_556     S
V34     V69    10.032   1_556     S
V34     V77    10.032   1_556     S
V34     V49    10.032   1_556     S
V34     V57    10.032   1_556     S
V34     V73    10.032   1_556     S
V34     V65    10.032   1_556     S
V35     V58    10.032   1_565     S
V35     V50    10.032   1_565     S
V35     V72    10.032   .     S
V35     V80    10.032   .     S
V35     V52    10.032   .     S
V35     V60    10.032   .     S
V35     V76    10.032   .     S
V35     V68    10.032   .     S
V36     V57    10.032   1_566     S
V36     V49    10.032   1_566     S
V36     V71    10.032   1_556     S
V36     V79    10.032   1_556     S
V36     V51    10.032   1_556     S
V36     V59    10.032   1_556     S
V36     V75    10.032   1_556     S
V36     V67    10.032   1_556     S
V37     V64    10.032   .     S
V37     V56    10.032   .     S
V37     V66    10.032   1_655     S
V37     V74    10.032   1_655     S
V37     V54    10.032   .     S
V37     V62    10.032   .     S
V37     V78    10.032   .     S
V37     V70    10.032   .     S
V38     V63    10.032   1_556     S
V38     V55    10.032   1_556     S
V38     V65    10.032   1_656     S
V38     V73    10.032   1_656     S
V38     V53    10.032   1_556     S
V38     V61    10.032   1_556     S
V38     V77    10.032   1_556     S
V38     V69    10.032   1_556     S
V39     V62    10.032   1_565     S
V39     V54    10.032   1_565     S
V39     V68    10.032   1_655     S
V39     V76    10.032   1_655     S
V39     V56    10.032   .     S
V39     V64    10.032   .     S
V39     V80    10.032   .     S
V39     V72    10.032   .     S
V40     V61    10.032   1_566     S
V40     V53    10.032   1_566     S
V40     V67    10.032   1_656     S
V40     V75    10.032   1_656     S
V40     V55    10.032   1_556     S
V40     V63    10.032   1_556     S
V40     V79    10.032   1_556     S
V40     V71    10.032   1_556     S
V41     V51    10.032   .     S
V41     V59    10.032   .     S
V41     V77    10.032   .     S
V41     V69    10.032   .     S
V41     V49    10.032   .     S
V41     V57    10.032   .     S
V41     V65    10.032   .     S
V41     V73    10.032   .     S
V42     V52    10.032   .     S
V42     V60    10.032   .     S
V42     V78    10.032   .     S
V42     V70    10.032   .     S
V42     V50    10.032   .     S
V42     V58    10.032   .     S
V42     V66    10.032   .     S
V42     V74    10.032   .     S
V43     V49    10.032   1_565     S
V43     V57    10.032   1_565     S
V43     V79    10.032   .     S
V43     V71    10.032   .     S
V43     V51    10.032   .     S
V43     V59    10.032   .     S
V43     V67    10.032   .     S
V43     V75    10.032   .     S
V44     V50    10.032   1_565     S
V44     V58    10.032   1_565     S
V44     V80    10.032   .     S
V44     V72    10.032   .     S
V44     V52    10.032   .     S
V44     V60    10.032   .     S
V44     V68    10.032   .     S
V44     V76    10.032   .     S
V45     V55    10.032   .     S
V45     V63    10.032   .     S
V45     V73    10.032   1_655     S
V45     V65    10.032   1_655     S
V45     V53    10.032   .     S
V45     V61    10.032   .     S
V45     V69    10.032   .     S
V45     V77    10.032   .     S
V46     V56    10.032   .     S
V46     V64    10.032   .     S
V46     V74    10.032   1_655     S
V46     V66    10.032   1_655     S
V46     V54    10.032   .     S
V46     V62    10.032   .     S
V46     V70    10.032   .     S
V46     V78    10.032   .     S
V47     V53    10.032   1_565     S
V47     V61    10.032   1_565     S
V47     V75    10.032   1_655     S
V47     V67    10.032   1_655     S
V47     V55    10.032   .     S
V47     V63    10.032   .     S
V47     V71    10.032   .     S
V47     V79    10.032   .     S
V48     V54    10.032   1_565     S
V48     V62    10.032   1_565     S
V48     V76    10.032   1_655     S
V48     V68    10.032   1_655     S
V48     V56    10.032   .     S
V48     V64    10.032   .     S
V48     V72    10.032   .     S
V48     V80    10.032   .     S
V49     V81    9.936   .     S
V49     V90    9.936   1_554     S
V49     V65    9.936   .     S
V49     V75    9.936   1_545     S
V49     V43    10.032   1_545     S
V49     V36    10.032   1_544     S
V49     V20    10.032   1_544     S
V49     V26    10.032   1_554     S
V49     V34    10.032   1_554     S
V49     V19    10.032   1_545     S
V50     V82    9.936   .     S
V50     V89    9.936   .     S
V50     V66    9.936   .     S
V50     V76    9.936   1_545     S
V50     V44    10.032   1_545     S
V50     V35    10.032   1_545     S
V50     V19    10.032   1_545     S
V50     V20    10.032   1_545     S
V51     V83    9.936   .     S
V51     V92    9.936   1_554     S
V51     V67    9.936   .     S
V51     V73    9.936   .     S
V51     V34    10.032   1_554     S
V51     V18    10.032   1_554     S
V51     V28    10.032   1_554     S
V51     V36    10.032   1_554     S
V52     V84    9.936   .     S
V52     V91    9.936   .     S
V52     V68    9.936   .     S
V52     V74    9.936   .     S
V53     V85    9.936   .     S
V53     V94    9.936   1_554     S
V53     V69    9.936   .     S
V53     V79    9.936   1_545     S
V53     V47    10.032   1_545     S
V53     V40    10.032   1_544     S
V53     V24    10.032   1_544     S
V53     V30    10.032   1_554     S
V53     V38    10.032   1_554     S
V53     V23    10.032   1_545     S
V54     V86    9.936   .     S
V54     V93    9.936   .     S
V54     V70    9.936   .     S
V54     V80    9.936   1_545     S
V54     V48    10.032   1_545     S
V54     V39    10.032   1_545     S
V54     V23    10.032   1_545     S
V54     V24    10.032   1_545     S
V55     V87    9.936   .     S
V55     V96    9.936   1_554     S
V55     V71    9.936   .     S
V55     V77    9.936   .     S
V55     V38    10.032   1_554     S
V55     V22    10.032   1_554     S
V55     V32    10.032   1_554     S
V55     V40    10.032   1_554     S
V56     V88    9.936   .     S
V56     V95    9.936   .     S
V56     V72    9.936   .     S
V56     V78    9.936   .     S
V57     V85    9.936   .     S
V57     V94    9.936   1_554     S
V57     V69    9.936   .     S
V57     V79    9.936   1_545     S
V57     V43    10.032   1_545     S
V57     V36    10.032   1_544     S
V57     V20    10.032   1_544     S
V57     V26    10.032   1_554     S
V57     V34    10.032   1_554     S
V57     V19    10.032   1_545     S
V58     V86    9.936   .     S
V58     V93    9.936   .     S
V58     V70    9.936   .     S
V58     V80    9.936   1_545     S
V58     V44    10.032   1_545     S
V58     V35    10.032   1_545     S
V58     V19    10.032   1_545     S
V58     V20    10.032   1_545     S
V59     V87    9.936   .     S
V59     V96    9.936   1_554     S
V59     V71    9.936   .     S
V59     V77    9.936   .     S
V59     V34    10.032   1_554     S
V59     V18    10.032   1_554     S
V59     V28    10.032   1_554     S
V59     V36    10.032   1_554     S
V60     V88    9.936   .     S
V60     V95    9.936   .     S
V60     V72    9.936   .     S
V60     V78    9.936   .     S
V61     V81    9.936   1_655     S
V61     V90    9.936   1_654     S
V61     V65    9.936   1_655     S
V61     V75    9.936   1_645     S
V61     V47    10.032   1_545     S
V61     V40    10.032   1_544     S
V61     V24    10.032   1_544     S
V61     V30    10.032   1_554     S
V61     V38    10.032   1_554     S
V61     V23    10.032   1_545     S
V62     V82    9.936   1_655     S
V62     V89    9.936   1_655     S
V62     V66    9.936   1_655     S
V62     V76    9.936   1_645     S
V62     V48    10.032   1_545     S
V62     V39    10.032   1_545     S
V62     V23    10.032   1_545     S
V62     V24    10.032   1_545     S
V63     V83    9.936   1_655     S
V63     V92    9.936   1_654     S
V63     V67    9.936   1_655     S
V63     V73    9.936   1_655     S
V63     V38    10.032   1_554     S
V63     V22    10.032   1_554     S
V63     V32    10.032   1_554     S
V63     V40    10.032   1_554     S
V64     V84    9.936   1_655     S
V64     V91    9.936   1_655     S
V64     V68    9.936   1_655     S
V64     V74    9.936   1_655     S
V65     V81    9.936   .     S
V65     V90    9.936   1_554     S
V65     V61    9.936   1_455     S
V65     V38    10.032   1_454     S
V65     V45    10.032   1_455     S
V65     V10    10.032   1_554     S
V65     V6    10.032   1_454     S
V65     V34    10.032   1_554     S
V65     V5    10.032   1_455     S
V66     V82    9.936   .     S
V66     V89    9.936   .     S
V66     V62    9.936   1_455     S
V66     V37    10.032   1_455     S
V66     V46    10.032   1_455     S
V66     V5    10.032   1_455     S
V66     V6    10.032   1_455     S
V67     V83    9.936   .     S
V67     V92    9.936   1_554     S
V67     V63    9.936   1_455     S
V67     V40    10.032   1_454     S
V67     V47    10.032   1_455     S
V67     V12    10.032   1_554     S
V67     V8    10.032   1_454     S
V67     V36    10.032   1_554     S
V67     V7    10.032   1_455     S
V68     V84    9.936   .     S
V68     V91    9.936   .     S
V68     V64    9.936   1_455     S
V68     V39    10.032   1_455     S
V68     V48    10.032   1_455     S
V68     V7    10.032   1_455     S
V68     V8    10.032   1_455     S
V69     V85    9.936   .     S
V69     V94    9.936   1_554     S
V69     V34    10.032   1_554     S
V69     V14    10.032   1_554     S
V69     V2    10.032   1_554     S
V69     V38    10.032   1_554     S
V70     V86    9.936   .     S
V70     V93    9.936   .     S
V71     V87    9.936   .     S
V71     V96    9.936   1_554     S
V71     V36    10.032   1_554     S
V71     V16    10.032   1_554     S
V71     V4    10.032   1_554     S
V71     V40    10.032   1_554     S
V72     V88    9.936   .     S
V72     V95    9.936   .     S
V73     V83    9.936   .     S
V73     V92    9.936   1_554     S
V73     V63    9.936   1_455     S
V73     V38    10.032   1_454     S
V73     V45    10.032   1_455     S
V73     V10    10.032   1_554     S
V73     V6    10.032   1_454     S
V73     V34    10.032   1_554     S
V73     V5    10.032   1_455     S
V74     V84    9.936   .     S
V74     V91    9.936   .     S
V74     V64    9.936   1_455     S
V74     V37    10.032   1_455     S
V74     V46    10.032   1_455     S
V74     V5    10.032   1_455     S
V74     V6    10.032   1_455     S
V75     V81    9.936   1_565     S
V75     V90    9.936   1_564     S
V75     V49    9.936   1_565     S
V75     V61    9.936   1_465     S
V75     V40    10.032   1_454     S
V75     V47    10.032   1_455     S
V75     V12    10.032   1_554     S
V75     V8    10.032   1_454     S
V75     V36    10.032   1_554     S
V75     V7    10.032   1_455     S
V76     V82    9.936   1_565     S
V76     V89    9.936   1_565     S
V76     V50    9.936   1_565     S
V76     V62    9.936   1_465     S
V76     V39    10.032   1_455     S
V76     V48    10.032   1_455     S
V76     V7    10.032   1_455     S
V76     V8    10.032   1_455     S
V77     V87    9.936   .     S
V77     V96    9.936   1_554     S
V77     V34    10.032   1_554     S
V77     V14    10.032   1_554     S
V77     V2    10.032   1_554     S
V77     V38    10.032   1_554     S
V78     V88    9.936   .     S
V78     V95    9.936   .     S
V79     V85    9.936   1_565     S
V79     V94    9.936   1_564     S
V79     V53    9.936   1_565     S
V79     V57    9.936   1_565     S
V79     V36    10.032   1_554     S
V79     V16    10.032   1_554     S
V79     V4    10.032   1_554     S
V79     V40    10.032   1_554     S
V80     V86    9.936   1_565     S
V80     V93    9.936   1_565     S
V80     V54    9.936   1_565     S
V80     V58    9.936   1_565     S
V81     V61    9.936   1_455     S
V81     V75    9.936   1_545     S
V81     V29    10.032   1_455     S
V81     V23    10.032   1_445     S
V81     V7    10.032   1_445     S
V81     V11    10.032   1_545     S
V81     V19    10.032   1_545     S
V81     V5    10.032   1_455     S
V82     V62    9.936   1_455     S
V82     V76    9.936   1_545     S
V82     V30    10.032   1_455     S
V82     V24    10.032   1_445     S
V82     V8    10.032   1_445     S
V82     V12    10.032   1_545     S
V82     V20    10.032   1_545     S
V82     V6    10.032   1_455     S
V83     V63    9.936   1_455     S
V83     V31    10.032   1_455     S
V83     V21    10.032   1_455     S
V83     V5    10.032   1_455     S
V83     V7    10.032   1_455     S
V84     V64    9.936   1_455     S
V84     V32    10.032   1_455     S
V84     V22    10.032   1_455     S
V84     V6    10.032   1_455     S
V84     V8    10.032   1_455     S
V85     V79    9.936   1_545     S
V85     V19    10.032   1_545     S
V85     V3    10.032   1_545     S
V85     V15    10.032   1_545     S
V85     V23    10.032   1_545     S
V86     V80    9.936   1_545     S
V86     V20    10.032   1_545     S
V86     V4    10.032   1_545     S
V86     V16    10.032   1_545     S
V86     V24    10.032   1_545     S
V89     V76    9.936   1_545     S
V89     V62    9.936   1_455     S
V89     V29    10.032   1_455     S
V89     V23    10.032   1_445     S
V89     V7    10.032   1_445     S
V89     V11    10.032   1_545     S
V89     V19    10.032   1_545     S
V89     V5    10.032   1_455     S
V90     V75    9.936   1_546     S
V90     V49    9.936   1_556     S
V90     V65    9.936   1_556     S
V90     V61    9.936   1_456     S
V90     V30    10.032   1_455     S
V90     V24    10.032   1_445     S
V90     V8    10.032   1_445     S
V90     V12    10.032   1_545     S
V90     V20    10.032   1_545     S
V90     V6    10.032   1_455     S
V91     V64    9.936   1_455     S
V91     V31    10.032   1_455     S
V91     V21    10.032   1_455     S
V91     V5    10.032   1_455     S
V91     V7    10.032   1_455     S
V92     V73    9.936   1_556     S
V92     V51    9.936   1_556     S
V92     V67    9.936   1_556     S
V92     V63    9.936   1_456     S
V92     V32    10.032   1_455     S
V92     V22    10.032   1_455     S
V92     V6    10.032   1_455     S
V92     V8    10.032   1_455     S
V93     V80    9.936   1_545     S
V93     V19    10.032   1_545     S
V93     V3    10.032   1_545     S
V93     V15    10.032   1_545     S
V93     V23    10.032   1_545     S
V94     V79    9.936   1_546     S
V94     V53    9.936   1_556     S
V94     V69    9.936   1_556     S
V94     V57    9.936   1_556     S
V94     V20    10.032   1_545     S
V94     V4    10.032   1_545     S
V94     V16    10.032   1_545     S
V94     V24    10.032   1_545     S
V96     V77    9.936   1_556     S
V96     V55    9.936   1_556     S
V96     V71    9.936   1_556     S
V96     V59    9.936   1_556     S
