data_xly
_audit_creation_date              2019-12-31
_audit_creation_method            'Pymatgen'
_symmetry_space_group_name_H-M    'P1'
_symmetry_Int_Tables_number       1
loop_
_symmetry_equiv_pos_as_xyz
  x,y,z
_cell_length_a                    36.0299
_cell_length_b                    36.0299
_cell_length_c                    37.3754
_cell_angle_alpha                 90.0
_cell_angle_beta                 90.0
_cell_angle_gamma                 120.0
loop_
_atom_site_label
_atom_site_type_symbol
_atom_site_fract_x
_atom_site_fract_y
_atom_site_fract_z
Er1     Er     0.5   0.75   0.1163
Er2     Er     0.5   0.75   0.6163
Er3     Er     0.5   0.75   0.3837
Er4     Er     0.5   0.75   0.8837
Er5     Er     0.25   0.75   0.3837
Er6     Er     0.25   0.75   0.8837
Er7     Er     0.25   0.75   0.1163
Er8     Er     0.25   0.75   0.6163
Er9     Er     0.25   0.5   0.1163
Er10     Er     0.25   0.5   0.6163
Er11     Er     0.25   0.5   0.3837
Er12     Er     0.25   0.5   0.8837
Er13     Er     0.75   0.25   0.3837
Er14     Er     0.75   0.25   0.8837
Er15     Er     0.75   0.25   0.1163
Er16     Er     0.75   0.25   0.6163
Er17     Er     0.75   0.5   0.1163
Er18     Er     0.75   0.5   0.6163
Er19     Er     0.75   0.5   0.3837
Er20     Er     0.75   0.5   0.8837
Er21     Er     0.5   0.25   0.3837
Er22     Er     0.5   0.25   0.8837
Er23     Er     0.5   0.25   0.1163
Er24     Er     0.5   0.25   0.6163
V25     V     0.5   0.5   0.0
V26     V     0.5   0.5   0.5
V27     V     0.0   0.5   0.0
V28     V     0.0   0.5   0.5
V29     V     0.5   0.0   0.0
V30     V     0.5   0.0   0.5
loop_
_geom_bond_atom_site_label_1
_geom_bond_atom_site_label_2
_geom_bond_distance
_geom_bond_site_symmetry_2
_ccdc_geom_bond_type
Er1     Er3    9.995   .     S
Er1     V29    10.001   1_565     S
Er1     V25    10.001   .     S
Er2     Er4    9.995   .     S
Er2     V30    10.001   1_565     S
Er2     V26    10.001   .     S
Er3     V30    10.001   1_565     S
Er3     V26    10.001   .     S
Er4     V29    10.001   1_566     S
Er4     V25    10.001   1_556     S
Er5     V30    10.001   1_565     S
Er5     Er7    9.995   .     S
Er5     V28    10.001   .     S
Er6     V29    10.001   1_566     S
Er6     Er8    9.995   .     S
Er6     V27    10.001   1_556     S
Er7     V29    10.001   1_565     S
Er7     V27    10.001   .     S
Er8     V30    10.001   1_565     S
Er8     V28    10.001   .     S
Er9     V27    10.001   .     S
Er9     V25    10.001   .     S
Er9     Er11    9.995   .     S
Er10     V28    10.001   .     S
Er10     V26    10.001   .     S
Er10     Er12    9.995   .     S
Er11     V28    10.001   .     S
Er11     V26    10.001   .     S
Er12     V27    10.001   1_556     S
Er12     V25    10.001   1_556     S
Er13     V28    10.001   1_655     S
Er13     Er15    9.995   .     S
Er13     V30    10.001   .     S
Er14     V27    10.001   1_656     S
Er14     Er16    9.995   .     S
Er14     V29    10.001   1_556     S
Er15     V27    10.001   1_655     S
Er15     V29    10.001   .     S
Er16     V28    10.001   1_655     S
Er16     V30    10.001   .     S
Er17     V27    10.001   1_655     S
Er17     Er19    9.995   .     S
Er17     V25    10.001   .     S
Er18     V28    10.001   1_655     S
Er18     Er20    9.995   .     S
Er18     V26    10.001   .     S
Er19     V28    10.001   1_655     S
Er19     V26    10.001   .     S
Er20     V27    10.001   1_656     S
Er20     V25    10.001   1_556     S
Er21     V30    10.001   .     S
Er21     V26    10.001   .     S
Er21     Er23    9.995   .     S
Er22     V29    10.001   1_556     S
Er22     V25    10.001   1_556     S
Er22     Er24    9.995   .     S
Er23     V29    10.001   .     S
Er23     V25    10.001   .     S
Er24     V30    10.001   .     S
Er24     V26    10.001   .     S
V25     Er12    10.001   1_554     S
V25     Er4    10.001   1_554     S
V25     Er20    10.001   1_554     S
V25     Er22    10.001   1_554     S
V27     Er6    10.001   1_554     S
V27     Er12    10.001   1_554     S
V27     Er14    10.001   1_454     S
V27     Er15    10.001   1_455     S
V27     Er17    10.001   1_455     S
V27     Er20    10.001   1_454     S
V28     Er13    10.001   1_455     S
V28     Er16    10.001   1_455     S
V28     Er18    10.001   1_455     S
V28     Er19    10.001   1_455     S
V29     Er4    10.001   1_544     S
V29     Er1    10.001   1_545     S
V29     Er7    10.001   1_545     S
V29     Er6    10.001   1_544     S
V29     Er22    10.001   1_554     S
V29     Er14    10.001   1_554     S
V30     Er3    10.001   1_545     S
V30     Er2    10.001   1_545     S
V30     Er8    10.001   1_545     S
V30     Er5    10.001   1_545     S
