data_xlz
_audit_creation_date              2019-12-31
_audit_creation_method            'Pymatgen'
_symmetry_space_group_name_H-M    'P1'
_symmetry_Int_Tables_number       1
loop_
_symmetry_equiv_pos_as_xyz
  x,y,z
_cell_length_a                    49.5005
_cell_length_b                    49.5005
_cell_length_c                    27.0124
_cell_angle_alpha                 90.0
_cell_angle_beta                 90.0
_cell_angle_gamma                 120.0
loop_
_atom_site_label
_atom_site_type_symbol
_atom_site_fract_x
_atom_site_fract_y
_atom_site_fract_z
V1     V     0.5013   0.8517   0.0
V2     V     0.5013   0.8517   0.5
V3     V     0.3503   0.8517   0.0
V4     V     0.3503   0.8517   0.5
Er5     Er     0.5   0.0   0.25
Er6     Er     0.5   0.0   0.75
V7     V     0.4987   0.1483   0.0
V8     V     0.4987   0.1483   0.5
V9     V     0.6497   0.1483   0.0
V10     V     0.6497   0.1483   0.5
Er11     Er     1.0   0.5   0.25
Er12     Er     1.0   0.5   0.75
V13     V     0.1483   0.4987   0.0
V14     V     0.1483   0.4987   0.5
V15     V     0.8517   0.3503   0.0
V16     V     0.8517   0.3503   0.5
V17     V     0.8517   0.5013   0.0
V18     V     0.8517   0.5013   0.5
V19     V     0.1483   0.6497   0.0
V20     V     0.1483   0.6497   0.5
Er21     Er     0.5   0.5   0.25
Er22     Er     0.5   0.5   0.75
V23     V     0.4987   0.3503   0.0
V24     V     0.4987   0.3503   0.5
V25     V     0.3503   0.4987   0.0
V26     V     0.3503   0.4987   0.5
V27     V     0.6497   0.5013   0.0
V28     V     0.6497   0.5013   0.5
V29     V     0.5013   0.6497   0.0
V30     V     0.5013   0.6497   0.5
loop_
_geom_bond_atom_site_label_1
_geom_bond_atom_site_label_2
_geom_bond_distance
_geom_bond_site_symmetry_2
_ccdc_geom_bond_type
V1     Er6    10.0   1_564     S
V1     Er5    10.0   1_565     S
V1     V29    10.0   .     S
V2     Er5    10.0   1_565     S
V2     Er6    10.0   1_565     S
V2     V30    10.0   .     S
V3     Er6    10.0   1_564     S
V3     Er5    10.0   1_565     S
V3     V19    10.0   .     S
V4     Er5    10.0   1_565     S
V4     Er6    10.0   1_565     S
V4     V20    10.0   .     S
Er5     V2    10.0   1_545     S
Er5     V4    10.0   1_545     S
Er5     V3    10.0   1_545     S
Er5     V1    10.0   1_545     S
Er5     V8    10.0   .     S
Er5     V10    10.0   .     S
Er5     V9    10.0   .     S
Er5     V7    10.0   .     S
Er6     V1    10.0   1_546     S
Er6     V3    10.0   1_546     S
Er6     V4    10.0   1_545     S
Er6     V2    10.0   1_545     S
Er6     V7    10.0   1_556     S
Er6     V9    10.0   1_556     S
Er6     V10    10.0   .     S
Er6     V8    10.0   .     S
V7     Er6    10.0   1_554     S
V7     V23    10.0   .     S
V8     V24    10.0   .     S
V9     Er6    10.0   1_554     S
V9     V15    10.0   .     S
V10     V16    10.0   .     S
Er11     V20    10.0   1_655     S
Er11     V14    10.0   1_655     S
Er11     V16    10.0   .     S
Er11     V18    10.0   .     S
Er11     V17    10.0   .     S
Er11     V15    10.0   .     S
Er11     V13    10.0   1_655     S
Er11     V19    10.0   1_655     S
Er12     V19    10.0   1_656     S
Er12     V13    10.0   1_656     S
Er12     V15    10.0   1_556     S
Er12     V17    10.0   1_556     S
Er12     V18    10.0   .     S
Er12     V16    10.0   .     S
Er12     V14    10.0   1_655     S
Er12     V20    10.0   1_655     S
V13     Er12    10.0   1_454     S
V13     Er11    10.0   1_455     S
V13     V25    10.0   .     S
V14     Er11    10.0   1_455     S
V14     Er12    10.0   1_455     S
V14     V26    10.0   .     S
V15     Er12    10.0   1_554     S
V17     Er12    10.0   1_554     S
V17     V27    10.0   .     S
V18     V28    10.0   .     S
V19     Er12    10.0   1_454     S
V19     Er11    10.0   1_455     S
V20     Er11    10.0   1_455     S
V20     Er12    10.0   1_455     S
Er21     V23    10.0   .     S
Er21     V27    10.0   .     S
Er21     V28    10.0   .     S
Er21     V24    10.0   .     S
Er21     V29    10.0   .     S
Er21     V25    10.0   .     S
Er21     V26    10.0   .     S
Er21     V30    10.0   .     S
Er22     V24    10.0   .     S
Er22     V28    10.0   .     S
Er22     V27    10.0   1_556     S
Er22     V23    10.0   1_556     S
Er22     V30    10.0   .     S
Er22     V26    10.0   .     S
Er22     V25    10.0   1_556     S
Er22     V29    10.0   1_556     S
V23     Er22    10.0   1_554     S
V25     Er22    10.0   1_554     S
V27     Er22    10.0   1_554     S
V29     Er22    10.0   1_554     S
