data_xww
_audit_creation_date              2019-12-31
_audit_creation_method            'Pymatgen'
_symmetry_space_group_name_H-M    'P1'
_symmetry_Int_Tables_number       1
loop_
_symmetry_equiv_pos_as_xyz
  x,y,z
_cell_length_a                    39.9304
_cell_length_b                    34.149
_cell_length_c                    32.1113
_cell_angle_alpha                 90.0
_cell_angle_beta                 100.1837
_cell_angle_gamma                 90.0
loop_
_atom_site_label
_atom_site_type_symbol
_atom_site_fract_x
_atom_site_fract_y
_atom_site_fract_z
V1     V     0.0476   0.0669   0.1259
V2     V     0.0476   0.5669   0.1259
V3     V     0.5476   0.0669   0.1259
V4     V     0.5476   0.5669   0.1259
Er5     Er     0.3434   0.1831   0.9423
Er6     Er     0.3434   0.6831   0.9423
Er7     Er     0.8434   0.1831   0.9423
Er8     Er     0.8434   0.6831   0.9423
V9     V     0.2976   0.1831   0.6259
V10     V     0.2976   0.6831   0.6259
V11     V     0.7976   0.1831   0.6259
V12     V     0.7976   0.6831   0.6259
Er13     Er     0.0934   0.0669   0.4423
Er14     Er     0.0934   0.5669   0.4423
Er15     Er     0.5934   0.0669   0.4423
Er16     Er     0.5934   0.5669   0.4423
V17     V     0.2024   0.3169   0.3741
V18     V     0.2024   0.8169   0.3741
V19     V     0.7024   0.3169   0.3741
V20     V     0.7024   0.8169   0.3741
Er21     Er     0.4066   0.4331   0.5577
Er22     Er     0.4066   0.9331   0.5577
Er23     Er     0.9066   0.4331   0.5577
Er24     Er     0.9066   0.9331   0.5577
V25     V     0.4524   0.4331   0.8741
V26     V     0.4524   0.9331   0.8741
V27     V     0.9524   0.4331   0.8741
V28     V     0.9524   0.9331   0.8741
Er29     Er     0.1566   0.3169   0.0577
Er30     Er     0.1566   0.8169   0.0577
Er31     Er     0.6566   0.3169   0.0577
Er32     Er     0.6566   0.8169   0.0577
loop_
_geom_bond_atom_site_label_1
_geom_bond_atom_site_label_2
_geom_bond_distance
_geom_bond_site_symmetry_2
_ccdc_geom_bond_type
V1     Er7    10.0   1_454     S
V1     Er13    10.0   .     S
V1     Er30    10.0   1_545     S
V1     Er29    10.0   .     S
V2     Er8    10.0   1_454     S
V2     Er14    10.0   .     S
V2     Er29    10.0   .     S
V2     Er30    10.0   .     S
V3     Er5    10.0   1_554     S
V3     Er15    10.0   .     S
V3     Er32    10.0   1_545     S
V3     Er31    10.0   .     S
V4     Er6    10.0   1_554     S
V4     Er16    10.0   .     S
V4     Er31    10.0   .     S
V4     Er32    10.0   .     S
Er5     V26    10.0   1_545     S
Er5     V3    10.0   1_556     S
Er5     V25    10.0   .     S
Er5     V9    10.0   .     S
Er5     Er29    10.0   1_556     S
Er6     V25    10.0   .     S
Er6     V4    10.0   1_556     S
Er6     V26    10.0   .     S
Er6     V10    10.0   .     S
Er6     Er30    10.0   1_556     S
Er7     V28    10.0   1_545     S
Er7     V1    10.0   1_656     S
Er7     V27    10.0   .     S
Er7     V11    10.0   .     S
Er7     Er31    10.0   1_556     S
Er8     V27    10.0   .     S
Er8     V2    10.0   1_656     S
Er8     V28    10.0   .     S
Er8     V12    10.0   .     S
Er8     Er32    10.0   1_556     S
V9     Er13    10.0   .     S
V9     Er21    10.0   .     S
V9     Er22    10.0   1_545     S
V10     Er14    10.0   .     S
V10     Er22    10.0   .     S
V10     Er21    10.0   .     S
V11     Er15    10.0   .     S
V11     Er23    10.0   .     S
V11     Er24    10.0   1_545     S
V12     Er16    10.0   .     S
V12     Er24    10.0   .     S
V12     Er23    10.0   .     S
Er13     V17    10.0   .     S
Er13     V18    10.0   1_545     S
Er13     Er24    10.0   1_445     S
Er14     V18    10.0   .     S
Er14     V17    10.0   .     S
Er14     Er23    10.0   1_455     S
Er15     V19    10.0   .     S
Er15     V20    10.0   1_545     S
Er15     Er22    10.0   1_545     S
Er16     V20    10.0   .     S
Er16     V19    10.0   .     S
Er16     Er21    10.0   .     S
V17     Er21    10.0   .     S
V17     Er29    10.0   .     S
V18     Er13    10.0   1_565     S
V18     Er22    10.0   .     S
V18     Er30    10.0   .     S
V19     Er23    10.0   .     S
V19     Er31    10.0   .     S
V20     Er15    10.0   1_565     S
V20     Er24    10.0   .     S
V20     Er32    10.0   .     S
Er21     V25    10.0   .     S
Er22     V9    10.0   1_565     S
Er22     V26    10.0   .     S
Er22     Er15    10.0   1_565     S
Er23     V27    10.0   .     S
Er23     Er14    10.0   1_655     S
Er24     V11    10.0   1_565     S
Er24     V28    10.0   .     S
Er24     Er13    10.0   1_665     S
V25     Er31    10.0   1_556     S
V26     Er5    10.0   1_565     S
V26     Er32    10.0   1_556     S
V27     Er29    10.0   1_656     S
V28     Er7    10.0   1_565     S
V28     Er30    10.0   1_656     S
Er29     Er5    10.0   1_554     S
Er29     V27    10.0   1_454     S
Er30     Er6    10.0   1_554     S
Er30     V1    10.0   1_565     S
Er30     V28    10.0   1_454     S
Er31     Er7    10.0   1_554     S
Er31     V25    10.0   1_554     S
Er32     Er8    10.0   1_554     S
Er32     V3    10.0   1_565     S
Er32     V26    10.0   1_554     S
