data_yan
_audit_creation_date              2019-12-31
_audit_creation_method            'Pymatgen'
_symmetry_space_group_name_H-M    'P1'
_symmetry_Int_Tables_number       1
loop_
_symmetry_equiv_pos_as_xyz
  x,y,z
_cell_length_a                    31.7735
_cell_length_b                    31.7735
_cell_length_c                    28.8513
_cell_angle_alpha                 90.0
_cell_angle_beta                 90.0
_cell_angle_gamma                 90.0
loop_
_atom_site_label
_atom_site_type_symbol
_atom_site_fract_x
_atom_site_fract_y
_atom_site_fract_z
V1     V     0.6135   0.1135   0.25
V2     V     0.6135   0.1135   0.5833
V3     V     0.6135   0.1135   0.9167
V4     V     0.6135   0.3865   0.1667
V5     V     0.6135   0.3865   0.5
V6     V     0.6135   0.3865   0.8333
V7     V     0.8865   0.3865   0.0833
V8     V     0.8865   0.3865   0.4167
V9     V     0.8865   0.3865   0.75
V10     V     0.8865   0.1135   0.0
V11     V     0.8865   0.1135   0.3333
V12     V     0.8865   0.1135   0.6667
V13     V     0.3865   0.8865   0.25
V14     V     0.3865   0.8865   0.5833
V15     V     0.3865   0.8865   0.9167
V16     V     0.1135   0.8865   0.0
V17     V     0.1135   0.8865   0.3333
V18     V     0.1135   0.8865   0.6667
V19     V     0.1135   0.6135   0.0833
V20     V     0.1135   0.6135   0.4167
V21     V     0.1135   0.6135   0.75
V22     V     0.3865   0.6135   0.1667
V23     V     0.3865   0.6135   0.5
V24     V     0.3865   0.6135   0.8333
loop_
_geom_bond_atom_site_label_1
_geom_bond_atom_site_label_2
_geom_bond_distance
_geom_bond_site_symmetry_2
_ccdc_geom_bond_type
V1     V13    10.199   1_545     S
V1     V4    9.002   .     S
V1     V11    9.002   .     S
V1     V3    9.617   1_554     S
V1     V2    9.617   .     S
V1     V5    11.282   .     S
V1     V10    11.282   .     S
V2     V14    10.199   1_545     S
V2     V5    9.002   .     S
V2     V12    9.002   .     S
V2     V3    9.617   .     S
V2     V6    11.282   .     S
V2     V11    11.282   .     S
V3     V15    10.199   1_545     S
V3     V6    9.002   .     S
V3     V10    9.002   1_556     S
V3     V1    9.617   1_556     S
V3     V4    11.282   1_556     S
V3     V12    11.282   .     S
V4     V22    10.199   .     S
V4     V7    9.002   .     S
V4     V6    9.617   1_554     S
V4     V5    9.617   .     S
V4     V3    11.282   1_554     S
V4     V8    11.282   .     S
V5     V23    10.199   .     S
V5     V8    9.002   .     S
V5     V6    9.617   .     S
V5     V9    11.282   .     S
V6     V24    10.199   .     S
V6     V9    9.002   .     S
V6     V4    9.617   1_556     S
V6     V7    11.282   1_556     S
V7     V19    10.199   1_655     S
V7     V10    9.002   .     S
V7     V8    9.617   .     S
V7     V9    9.617   1_554     S
V7     V6    11.282   1_554     S
V7     V11    11.282   .     S
V8     V20    10.199   1_655     S
V8     V11    9.002   .     S
V8     V9    9.617   .     S
V8     V12    11.282   .     S
V9     V21    10.199   1_655     S
V9     V12    9.002   .     S
V9     V7    9.617   1_556     S
V9     V10    11.282   1_556     S
V10     V16    10.199   1_645     S
V10     V3    9.002   1_554     S
V10     V11    9.617   .     S
V10     V12    9.617   1_554     S
V10     V9    11.282   1_554     S
V11     V17    10.199   1_645     S
V11     V12    9.617   .     S
V12     V18    10.199   1_645     S
V12     V10    9.617   1_556     S
V13     V1    10.199   1_565     S
V13     V17    9.002   .     S
V13     V22    9.002   .     S
V13     V15    9.617   1_554     S
V13     V14    9.617   .     S
V13     V16    11.282   .     S
V13     V23    11.282   .     S
V14     V2    10.199   1_565     S
V14     V18    9.002   .     S
V14     V23    9.002   .     S
V14     V15    9.617   .     S
V14     V17    11.282   .     S
V14     V24    11.282   .     S
V15     V3    10.199   1_565     S
V15     V16    9.002   1_556     S
V15     V24    9.002   .     S
V15     V13    9.617   1_556     S
V15     V18    11.282   .     S
V15     V22    11.282   1_556     S
V16     V10    10.199   1_465     S
V16     V15    9.002   1_554     S
V16     V19    9.002   .     S
V16     V17    9.617   .     S
V16     V18    9.617   1_554     S
V16     V21    11.282   1_554     S
V17     V11    10.199   1_465     S
V17     V20    9.002   .     S
V17     V18    9.617   .     S
V17     V19    11.282   .     S
V18     V12    10.199   1_465     S
V18     V21    9.002   .     S
V18     V16    9.617   1_556     S
V18     V20    11.282   .     S
V19     V7    10.199   1_455     S
V19     V22    9.002   .     S
V19     V20    9.617   .     S
V19     V21    9.617   1_554     S
V19     V24    11.282   1_554     S
V20     V8    10.199   1_455     S
V20     V23    9.002   .     S
V20     V21    9.617   .     S
V20     V22    11.282   .     S
V21     V9    10.199   1_455     S
V21     V24    9.002   .     S
V21     V19    9.617   1_556     S
V21     V16    11.282   1_556     S
V21     V23    11.282   .     S
V22     V24    9.617   1_554     S
V22     V23    9.617   .     S
V22     V15    11.282   1_554     S
V23     V24    9.617   .     S
V24     V22    9.617   1_556     S
V24     V19    11.282   1_556     S
