data_ybh
_audit_creation_date              2019-12-31
_audit_creation_method            'Pymatgen'
_symmetry_space_group_name_H-M    'P1'
_symmetry_Int_Tables_number       1
loop_
_symmetry_equiv_pos_as_xyz
  x,y,z
_cell_length_a                    27.3204
_cell_length_b                    27.3204
_cell_length_c                    32.66
_cell_angle_alpha                 90.0
_cell_angle_beta                 90.0
_cell_angle_gamma                 120.0
loop_
_atom_site_label
_atom_site_type_symbol
_atom_site_fract_x
_atom_site_fract_y
_atom_site_fract_z
V1     V     0.3333   0.6667   0.375
V2     V     0.3333   0.6667   0.875
Er3     Er     0.122   0.878   0.375
Er4     Er     0.122   0.878   0.875
Er5     Er     0.756   0.878   0.375
Er6     Er     0.756   0.878   0.875
Er7     Er     0.122   0.244   0.375
Er8     Er     0.122   0.244   0.875
Er9     Er     0.244   0.122   0.125
Er10     Er     0.244   0.122   0.625
V11     V     0.6667   0.3333   0.125
V12     V     0.6667   0.3333   0.625
Er13     Er     0.878   0.122   0.125
Er14     Er     0.878   0.122   0.625
Er15     Er     0.878   0.756   0.125
Er16     Er     0.878   0.756   0.625
loop_
_geom_bond_atom_site_label_1
_geom_bond_atom_site_label_2
_geom_bond_distance
_geom_bond_site_symmetry_2
_ccdc_geom_bond_type
V1     Er3    10.0   .     S
V1     Er5    10.0   .     S
V1     Er7    10.0   .     S
V2     Er4    10.0   .     S
V2     Er6    10.0   .     S
V2     Er8    10.0   .     S
Er3     Er7    10.0   1_565     S
Er3     Er10    10.0   1_565     S
Er3     Er9    10.0   1_565     S
Er3     Er5    10.0   1_455     S
Er3     Er15    10.0   1_455     S
Er3     Er16    10.0   1_455     S
Er4     Er8    10.0   1_565     S
Er4     Er9    10.0   1_566     S
Er4     Er10    10.0   1_565     S
Er4     Er6    10.0   1_455     S
Er4     Er16    10.0   1_455     S
Er4     Er15    10.0   1_456     S
Er5     Er13    10.0   1_565     S
Er5     Er16    10.0   .     S
Er5     Er14    10.0   1_565     S
Er5     Er15    10.0   .     S
Er5     Er7    10.0   1_665     S
Er5     Er3    10.0   1_655     S
Er6     Er14    10.0   1_565     S
Er6     Er15    10.0   1_556     S
Er6     Er13    10.0   1_566     S
Er6     Er16    10.0   .     S
Er6     Er8    10.0   1_665     S
Er6     Er4    10.0   1_655     S
Er7     Er3    10.0   1_545     S
Er7     Er5    10.0   1_445     S
Er7     Er14    10.0   1_455     S
Er7     Er13    10.0   1_455     S
Er7     Er9    10.0   .     S
Er7     Er10    10.0   .     S
Er8     Er4    10.0   1_545     S
Er8     Er6    10.0   1_445     S
Er8     Er13    10.0   1_456     S
Er8     Er14    10.0   1_455     S
Er8     Er10    10.0   .     S
Er8     Er9    10.0   1_556     S
Er9     V11    10.0   .     S
Er9     Er15    10.0   1_445     S
Er9     Er13    10.0   1_455     S
Er9     Er8    10.0   1_554     S
Er9     Er4    10.0   1_544     S
Er9     Er3    10.0   1_545     S
Er10     V12    10.0   .     S
Er10     Er16    10.0   1_445     S
Er10     Er14    10.0   1_455     S
Er10     Er3    10.0   1_545     S
Er10     Er4    10.0   1_545     S
V11     Er13    10.0   .     S
V11     Er15    10.0   .     S
V12     Er14    10.0   .     S
V12     Er16    10.0   .     S
Er13     Er15    10.0   1_545     S
Er13     Er5    10.0   1_545     S
Er13     Er6    10.0   1_544     S
Er13     Er9    10.0   1_655     S
Er13     Er8    10.0   1_654     S
Er13     Er7    10.0   1_655     S
Er14     Er16    10.0   1_545     S
Er14     Er6    10.0   1_545     S
Er14     Er5    10.0   1_545     S
Er14     Er10    10.0   1_655     S
Er14     Er7    10.0   1_655     S
Er14     Er8    10.0   1_655     S
Er15     Er13    10.0   1_565     S
Er15     Er6    10.0   1_554     S
Er15     Er9    10.0   1_665     S
Er15     Er3    10.0   1_655     S
Er15     Er4    10.0   1_654     S
Er16     Er14    10.0   1_565     S
Er16     Er10    10.0   1_665     S
Er16     Er4    10.0   1_655     S
Er16     Er3    10.0   1_655     S
