data_yfa
_audit_creation_date              2019-12-31
_audit_creation_method            'Pymatgen'
_symmetry_space_group_name_H-M    'P1'
_symmetry_Int_Tables_number       1
loop_
_symmetry_equiv_pos_as_xyz
  x,y,z
_cell_length_a                    34.3051
_cell_length_b                    34.3051
_cell_length_c                    36.588
_cell_angle_alpha                 90.0
_cell_angle_beta                 90.0
_cell_angle_gamma                 90.0
loop_
_atom_site_label
_atom_site_type_symbol
_atom_site_fract_x
_atom_site_fract_y
_atom_site_fract_z
V1     V     0.128   0.5447   0.4497
V2     V     0.128   0.5447   0.9497
V3     V     0.9554   0.372   0.3003
V4     V     0.9554   0.372   0.8003
V5     V     0.872   0.4554   0.0503
V6     V     0.872   0.4554   0.5503
V7     V     0.0446   0.628   0.1997
V8     V     0.0446   0.628   0.6997
V9     V     0.5447   0.372   0.4497
V10     V     0.5447   0.372   0.9497
V11     V     0.372   0.5447   0.3003
V12     V     0.372   0.5447   0.8003
V13     V     0.4554   0.628   0.0503
V14     V     0.4554   0.628   0.5503
V15     V     0.628   0.4554   0.1997
V16     V     0.628   0.4554   0.6997
V17     V     0.9554   0.128   0.4497
V18     V     0.9554   0.128   0.9497
V19     V     0.128   0.9554   0.3003
V20     V     0.128   0.9554   0.8003
V21     V     0.872   0.0446   0.1997
V22     V     0.872   0.0446   0.6997
V23     V     0.0446   0.872   0.0503
V24     V     0.0446   0.872   0.5503
V25     V     0.5447   0.128   0.3003
V26     V     0.5447   0.128   0.8003
V27     V     0.372   0.9554   0.4497
V28     V     0.372   0.9554   0.9497
V29     V     0.4554   0.872   0.1997
V30     V     0.4554   0.872   0.6997
V31     V     0.628   0.0446   0.0503
V32     V     0.628   0.0446   0.5503
loop_
_geom_bond_atom_site_label_1
_geom_bond_atom_site_label_2
_geom_bond_distance
_geom_bond_site_symmetry_2
_ccdc_geom_bond_type
V1     V6    10.0   1_455     S
V1     V8    10.0   .     S
V1     V3    10.0   1_455     S
V1     V7    10.0   .     S
V1     V11    10.0   .     S
V2     V5    10.0   1_456     S
V2     V7    10.0   1_556     S
V2     V4    10.0   1_455     S
V2     V8    10.0   .     S
V2     V12    10.0   .     S
V3     V6    10.0   .     S
V3     V1    10.0   1_655     S
V3     V7    10.0   1_655     S
V3     V5    10.0   .     S
V3     V17    10.0   .     S
V4     V5    10.0   1_556     S
V4     V2    10.0   1_655     S
V4     V8    10.0   1_655     S
V4     V6    10.0   .     S
V4     V18    10.0   .     S
V5     V4    10.0   1_554     S
V5     V2    10.0   1_654     S
V5     V7    10.0   1_655     S
V5     V15    10.0   .     S
V6     V1    10.0   1_655     S
V6     V8    10.0   1_655     S
V6     V16    10.0   .     S
V7     V2    10.0   1_554     S
V7     V3    10.0   1_455     S
V7     V5    10.0   1_455     S
V7     V23    10.0   .     S
V8     V4    10.0   1_455     S
V8     V6    10.0   1_455     S
V8     V24    10.0   .     S
V9     V15    10.0   .     S
V9     V11    10.0   .     S
V9     V14    10.0   .     S
V9     V16    10.0   .     S
V9     V25    10.0   .     S
V10     V16    10.0   .     S
V10     V12    10.0   .     S
V10     V13    10.0   1_556     S
V10     V15    10.0   1_556     S
V10     V26    10.0   .     S
V11     V15    10.0   .     S
V11     V13    10.0   .     S
V11     V14    10.0   .     S
V12     V16    10.0   .     S
V12     V14    10.0   .     S
V12     V13    10.0   1_556     S
V13     V15    10.0   .     S
V13     V12    10.0   1_554     S
V13     V10    10.0   1_554     S
V13     V29    10.0   .     S
V14     V16    10.0   .     S
V14     V30    10.0   .     S
V15     V10    10.0   1_554     S
V17     V21    10.0   .     S
V17     V19    10.0   1_645     S
V17     V24    10.0   1_645     S
V17     V22    10.0   .     S
V18     V22    10.0   .     S
V18     V20    10.0   1_645     S
V18     V23    10.0   1_646     S
V18     V21    10.0   1_556     S
V19     V21    10.0   1_465     S
V19     V23    10.0   .     S
V19     V17    10.0   1_465     S
V19     V24    10.0   .     S
V19     V27    10.0   .     S
V20     V22    10.0   1_465     S
V20     V24    10.0   .     S
V20     V18    10.0   1_465     S
V20     V23    10.0   1_556     S
V20     V28    10.0   .     S
V21     V19    10.0   1_645     S
V21     V23    10.0   1_645     S
V21     V18    10.0   1_554     S
V21     V31    10.0   .     S
V22     V20    10.0   1_645     S
V22     V24    10.0   1_645     S
V22     V32    10.0   .     S
V23     V21    10.0   1_465     S
V23     V20    10.0   1_554     S
V23     V18    10.0   1_464     S
V24     V22    10.0   1_465     S
V24     V17    10.0   1_465     S
V25     V29    10.0   1_545     S
V25     V31    10.0   .     S
V25     V27    10.0   1_545     S
V25     V32    10.0   .     S
V26     V30    10.0   1_545     S
V26     V32    10.0   .     S
V26     V28    10.0   1_545     S
V26     V31    10.0   1_556     S
V27     V29    10.0   .     S
V27     V25    10.0   1_565     S
V27     V32    10.0   1_565     S
V27     V30    10.0   .     S
V28     V30    10.0   .     S
V28     V26    10.0   1_565     S
V28     V31    10.0   1_566     S
V28     V29    10.0   1_556     S
V29     V25    10.0   1_565     S
V29     V28    10.0   1_554     S
V29     V31    10.0   1_565     S
V30     V26    10.0   1_565     S
V30     V32    10.0   1_565     S
V31     V26    10.0   1_554     S
V31     V28    10.0   1_544     S
V31     V29    10.0   1_545     S
V32     V27    10.0   1_545     S
V32     V30    10.0   1_545     S
