data_yfd
_audit_creation_date              2019-12-31
_audit_creation_method            'Pymatgen'
_symmetry_space_group_name_H-M    'P1'
_symmetry_Int_Tables_number       1
loop_
_symmetry_equiv_pos_as_xyz
  x,y,z
_cell_length_a                    38.3657
_cell_length_b                    38.3657
_cell_length_c                    33.7084
_cell_angle_alpha                 90.0
_cell_angle_beta                 90.0
_cell_angle_gamma                 90.0
loop_
_atom_site_label
_atom_site_type_symbol
_atom_site_fract_x
_atom_site_fract_y
_atom_site_fract_z
V1     V     0.0246   0.8762   0.037
V2     V     0.0246   0.8762   0.537
V3     V     0.9754   0.1238   0.463
V4     V     0.9754   0.1238   0.963
V5     V     0.8762   0.0246   0.213
V6     V     0.8762   0.0246   0.713
V7     V     0.1238   0.9754   0.287
V8     V     0.1238   0.9754   0.787
V9     V     0.9754   0.3762   0.037
V10     V     0.9754   0.3762   0.537
V11     V     0.0246   0.6238   0.463
V12     V     0.0246   0.6238   0.963
V13     V     0.8762   0.4754   0.287
V14     V     0.8762   0.4754   0.787
V15     V     0.1238   0.5246   0.213
V16     V     0.1238   0.5246   0.713
V17     V     0.3762   0.5246   0.287
V18     V     0.3762   0.5246   0.787
V19     V     0.6238   0.4754   0.213
V20     V     0.6238   0.4754   0.713
V21     V     0.5246   0.3762   0.463
V22     V     0.5246   0.3762   0.963
V23     V     0.4754   0.6238   0.037
V24     V     0.4754   0.6238   0.537
V25     V     0.3762   0.9754   0.213
V26     V     0.3762   0.9754   0.713
V27     V     0.6238   0.0246   0.287
V28     V     0.6238   0.0246   0.787
V29     V     0.4754   0.8762   0.463
V30     V     0.4754   0.8762   0.963
V31     V     0.5246   0.1238   0.037
V32     V     0.5246   0.1238   0.537
loop_
_geom_bond_atom_site_label_1
_geom_bond_atom_site_label_2
_geom_bond_distance
_geom_bond_site_symmetry_2
_ccdc_geom_bond_type
V1     V8    10.0   1_554     S
V1     V4    10.0   1_464     S
V1     V5    10.0   1_465     S
V1     V7    10.0   .     S
V1     V12    10.0   1_554     S
V2     V7    10.0   .     S
V2     V3    10.0   1_465     S
V2     V6    10.0   1_465     S
V2     V8    10.0   .     S
V2     V11    10.0   .     S
V3     V7    10.0   1_645     S
V3     V5    10.0   .     S
V3     V2    10.0   1_645     S
V3     V6    10.0   .     S
V3     V10    10.0   .     S
V4     V8    10.0   1_645     S
V4     V6    10.0   .     S
V4     V1    10.0   1_646     S
V4     V5    10.0   1_556     S
V4     V9    10.0   1_556     S
V5     V1    10.0   1_645     S
V5     V4    10.0   1_554     S
V5     V7    10.0   1_645     S
V5     V27    10.0   .     S
V6     V2    10.0   1_645     S
V6     V8    10.0   1_645     S
V6     V28    10.0   .     S
V7     V3    10.0   1_465     S
V7     V5    10.0   1_465     S
V7     V25    10.0   .     S
V8     V4    10.0   1_465     S
V8     V1    10.0   1_556     S
V8     V6    10.0   1_465     S
V8     V26    10.0   .     S
V9     V14    10.0   1_554     S
V9     V12    10.0   1_654     S
V9     V15    10.0   1_655     S
V9     V13    10.0   .     S
V9     V4    10.0   1_554     S
V10     V13    10.0   .     S
V10     V11    10.0   1_655     S
V10     V16    10.0   1_655     S
V10     V14    10.0   .     S
V11     V13    10.0   1_455     S
V11     V15    10.0   .     S
V11     V10    10.0   1_455     S
V11     V16    10.0   .     S
V12     V14    10.0   1_455     S
V12     V16    10.0   .     S
V12     V9    10.0   1_456     S
V12     V15    10.0   1_556     S
V12     V1    10.0   1_556     S
V13     V11    10.0   1_655     S
V13     V15    10.0   1_655     S
V13     V19    10.0   .     S
V14     V12    10.0   1_655     S
V14     V9    10.0   1_556     S
V14     V16    10.0   1_655     S
V14     V20    10.0   .     S
V15     V13    10.0   1_455     S
V15     V9    10.0   1_455     S
V15     V12    10.0   1_554     S
V15     V17    10.0   .     S
V16     V14    10.0   1_455     S
V16     V10    10.0   1_455     S
V16     V18    10.0   .     S
V17     V23    10.0   .     S
V17     V19    10.0   .     S
V17     V21    10.0   .     S
V17     V24    10.0   .     S
V18     V24    10.0   .     S
V18     V20    10.0   .     S
V18     V22    10.0   .     S
V18     V23    10.0   1_556     S
V19     V23    10.0   .     S
V19     V22    10.0   1_554     S
V19     V21    10.0   .     S
V20     V24    10.0   .     S
V20     V21    10.0   .     S
V20     V22    10.0   .     S
V21     V24    10.0   .     S
V21     V32    10.0   .     S
V22     V19    10.0   1_556     S
V22     V23    10.0   1_556     S
V22     V31    10.0   1_556     S
V23     V18    10.0   1_554     S
V23     V22    10.0   1_554     S
V23     V30    10.0   1_554     S
V24     V29    10.0   .     S
V25     V29    10.0   .     S
V25     V27    10.0   1_565     S
V25     V31    10.0   1_565     S
V25     V30    10.0   1_554     S
V26     V30    10.0   .     S
V26     V28    10.0   1_565     S
V26     V32    10.0   1_565     S
V26     V29    10.0   .     S
V27     V29    10.0   1_545     S
V27     V32    10.0   .     S
V27     V25    10.0   1_545     S
V27     V31    10.0   .     S
V28     V30    10.0   1_545     S
V28     V31    10.0   1_556     S
V28     V26    10.0   1_545     S
V28     V32    10.0   .     S
V29     V27    10.0   1_565     S
V29     V32    10.0   1_565     S
V30     V23    10.0   1_556     S
V30     V28    10.0   1_565     S
V30     V31    10.0   1_566     S
V30     V25    10.0   1_556     S
V31     V28    10.0   1_554     S
V31     V30    10.0   1_544     S
V31     V25    10.0   1_545     S
V31     V22    10.0   1_554     S
V32     V29    10.0   1_545     S
V32     V26    10.0   1_545     S
