data_yfe
_audit_creation_date              2019-12-31
_audit_creation_method            'Pymatgen'
_symmetry_space_group_name_H-M    'P1'
_symmetry_Int_Tables_number       1
loop_
_symmetry_equiv_pos_as_xyz
  x,y,z
_cell_length_a                    39.9342
_cell_length_b                    39.9342
_cell_length_c                    36.3173
_cell_angle_alpha                 90.0
_cell_angle_beta                 90.0
_cell_angle_gamma                 90.0
loop_
_atom_site_label
_atom_site_type_symbol
_atom_site_fract_x
_atom_site_fract_y
_atom_site_fract_z
V1     V     0.0072   0.1877   0.3808
V2     V     0.0072   0.6877   0.3808
V3     V     0.5072   0.1877   0.3808
V4     V     0.5072   0.6877   0.3808
V5     V     0.0072   0.0623   0.6192
V6     V     0.0072   0.5623   0.6192
V7     V     0.5072   0.0623   0.6192
V8     V     0.5072   0.5623   0.6192
V9     V     0.4928   0.3123   0.6192
V10     V     0.4928   0.8123   0.6192
V11     V     0.9928   0.3123   0.6192
V12     V     0.9928   0.8123   0.6192
V13     V     0.4928   0.4377   0.3808
V14     V     0.4928   0.9377   0.3808
V15     V     0.9928   0.4377   0.3808
V16     V     0.9928   0.9377   0.3808
V17     V     0.4377   0.4928   0.1192
V18     V     0.4377   0.9928   0.1192
V19     V     0.9377   0.4928   0.1192
V20     V     0.9377   0.9928   0.1192
V21     V     0.3123   0.4928   0.8808
V22     V     0.3123   0.9928   0.8808
V23     V     0.8123   0.4928   0.8808
V24     V     0.8123   0.9928   0.8808
V25     V     0.1877   0.0072   0.1192
V26     V     0.1877   0.5072   0.1192
V27     V     0.6877   0.0072   0.1192
V28     V     0.6877   0.5072   0.1192
V29     V     0.0623   0.0072   0.8808
V30     V     0.0623   0.5072   0.8808
V31     V     0.5623   0.0072   0.8808
V32     V     0.5623   0.5072   0.8808
V33     V     0.0623   0.2428   0.1192
V34     V     0.0623   0.7428   0.1192
V35     V     0.5623   0.2428   0.1192
V36     V     0.5623   0.7428   0.1192
V37     V     0.1877   0.2428   0.8808
V38     V     0.1877   0.7428   0.8808
V39     V     0.6877   0.2428   0.8808
V40     V     0.6877   0.7428   0.8808
V41     V     0.3123   0.2572   0.1192
V42     V     0.3123   0.7572   0.1192
V43     V     0.8123   0.2572   0.1192
V44     V     0.8123   0.7572   0.1192
V45     V     0.4377   0.2572   0.8808
V46     V     0.4377   0.7572   0.8808
V47     V     0.9377   0.2572   0.8808
V48     V     0.9377   0.7572   0.8808
V49     V     0.2572   0.4377   0.6192
V50     V     0.2572   0.9377   0.6192
V51     V     0.7572   0.4377   0.6192
V52     V     0.7572   0.9377   0.6192
V53     V     0.2572   0.3123   0.3808
V54     V     0.2572   0.8123   0.3808
V55     V     0.7572   0.3123   0.3808
V56     V     0.7572   0.8123   0.3808
V57     V     0.2428   0.0623   0.3808
V58     V     0.2428   0.5623   0.3808
V59     V     0.7428   0.0623   0.3808
V60     V     0.7428   0.5623   0.3808
V61     V     0.2428   0.1877   0.6192
V62     V     0.2428   0.6877   0.6192
V63     V     0.7428   0.1877   0.6192
V64     V     0.7428   0.6877   0.6192
loop_
_geom_bond_atom_site_label_1
_geom_bond_atom_site_label_2
_geom_bond_distance
_geom_bond_site_symmetry_2
_ccdc_geom_bond_type
V1     V16    10.0   1_445     S
V1     V5    10.0   .     S
V1     V11    10.0   1_455     S
V1     V15    10.0   1_455     S
V1     V33    10.0   .     S
V2     V15    10.0   1_455     S
V2     V6    10.0   .     S
V2     V12    10.0   1_455     S
V2     V16    10.0   1_455     S
V2     V34    10.0   .     S
V3     V14    10.0   1_545     S
V3     V7    10.0   .     S
V3     V9    10.0   .     S
V3     V13    10.0   .     S
V3     V35    10.0   .     S
V4     V13    10.0   .     S
V4     V8    10.0   .     S
V4     V10    10.0   .     S
V4     V14    10.0   .     S
V4     V36    10.0   .     S
V5     V16    10.0   1_445     S
V5     V12    10.0   1_445     S
V5     V11    10.0   1_455     S
V5     V29    10.0   .     S
V6     V15    10.0   1_455     S
V6     V11    10.0   1_455     S
V6     V12    10.0   1_455     S
V6     V30    10.0   .     S
V7     V14    10.0   1_545     S
V7     V10    10.0   1_545     S
V7     V9    10.0   .     S
V7     V31    10.0   .     S
V8     V13    10.0   .     S
V8     V9    10.0   .     S
V8     V10    10.0   .     S
V8     V32    10.0   .     S
V9     V13    10.0   .     S
V9     V45    10.0   .     S
V10     V7    10.0   1_565     S
V10     V14    10.0   .     S
V10     V46    10.0   .     S
V11     V6    10.0   1_655     S
V11     V5    10.0   1_655     S
V11     V1    10.0   1_655     S
V11     V15    10.0   .     S
V11     V47    10.0   .     S
V12     V5    10.0   1_665     S
V12     V6    10.0   1_655     S
V12     V2    10.0   1_655     S
V12     V16    10.0   .     S
V12     V48    10.0   .     S
V13     V17    10.0   .     S
V14     V3    10.0   1_565     S
V14     V7    10.0   1_565     S
V14     V18    10.0   .     S
V15     V2    10.0   1_655     S
V15     V6    10.0   1_655     S
V15     V1    10.0   1_655     S
V15     V19    10.0   .     S
V16     V1    10.0   1_665     S
V16     V5    10.0   1_665     S
V16     V2    10.0   1_655     S
V16     V20    10.0   .     S
V17     V21    10.0   1_554     S
V17     V26    10.0   .     S
V17     V28    10.0   .     S
V17     V32    10.0   1_554     S
V18     V22    10.0   1_554     S
V18     V25    10.0   1_565     S
V18     V27    10.0   1_565     S
V18     V31    10.0   1_564     S
V19     V23    10.0   1_554     S
V19     V28    10.0   .     S
V19     V26    10.0   1_655     S
V19     V30    10.0   1_654     S
V20     V24    10.0   1_554     S
V20     V27    10.0   1_565     S
V20     V25    10.0   1_665     S
V20     V29    10.0   1_664     S
V21     V17    10.0   1_556     S
V21     V26    10.0   1_556     S
V21     V30    10.0   .     S
V21     V32    10.0   .     S
V21     V49    10.0   .     S
V22     V18    10.0   1_556     S
V22     V25    10.0   1_566     S
V22     V29    10.0   1_565     S
V22     V31    10.0   1_565     S
V22     V50    10.0   .     S
V23     V19    10.0   1_556     S
V23     V28    10.0   1_556     S
V23     V32    10.0   .     S
V23     V30    10.0   1_655     S
V23     V51    10.0   .     S
V24     V20    10.0   1_556     S
V24     V27    10.0   1_566     S
V24     V31    10.0   1_565     S
V24     V29    10.0   1_665     S
V24     V52    10.0   .     S
V25     V18    10.0   1_545     S
V25     V22    10.0   1_544     S
V25     V29    10.0   1_554     S
V25     V20    10.0   1_445     S
V25     V57    10.0   .     S
V26     V21    10.0   1_554     S
V26     V30    10.0   1_554     S
V26     V19    10.0   1_455     S
V26     V58    10.0   .     S
V27     V20    10.0   1_545     S
V27     V24    10.0   1_544     S
V27     V31    10.0   1_554     S
V27     V18    10.0   1_545     S
V27     V59    10.0   .     S
V28     V23    10.0   1_554     S
V28     V32    10.0   1_554     S
V28     V60    10.0   .     S
V29     V22    10.0   1_545     S
V29     V25    10.0   1_556     S
V29     V20    10.0   1_446     S
V29     V24    10.0   1_445     S
V30     V26    10.0   1_556     S
V30     V19    10.0   1_456     S
V30     V23    10.0   1_455     S
V31     V24    10.0   1_545     S
V31     V27    10.0   1_556     S
V31     V18    10.0   1_546     S
V31     V22    10.0   1_545     S
V32     V28    10.0   1_556     S
V32     V17    10.0   1_556     S
V33     V43    10.0   1_455     S
V33     V47    10.0   1_454     S
V33     V37    10.0   1_554     S
V33     V41    10.0   .     S
V34     V44    10.0   1_455     S
V34     V48    10.0   1_454     S
V34     V38    10.0   1_554     S
V34     V42    10.0   .     S
V35     V41    10.0   .     S
V35     V45    10.0   1_554     S
V35     V39    10.0   1_554     S
V35     V43    10.0   .     S
V36     V42    10.0   .     S
V36     V46    10.0   1_554     S
V36     V40    10.0   1_554     S
V36     V44    10.0   .     S
V37     V47    10.0   1_455     S
V37     V33    10.0   1_556     S
V37     V41    10.0   1_556     S
V37     V45    10.0   .     S
V37     V61    10.0   .     S
V38     V48    10.0   1_455     S
V38     V34    10.0   1_556     S
V38     V42    10.0   1_556     S
V38     V46    10.0   .     S
V38     V62    10.0   .     S
V39     V45    10.0   .     S
V39     V35    10.0   1_556     S
V39     V43    10.0   1_556     S
V39     V47    10.0   .     S
V39     V63    10.0   .     S
V40     V46    10.0   .     S
V40     V36    10.0   1_556     S
V40     V44    10.0   1_556     S
V40     V48    10.0   .     S
V40     V64    10.0   .     S
V41     V37    10.0   1_554     S
V41     V45    10.0   1_554     S
V41     V53    10.0   .     S
V42     V38    10.0   1_554     S
V42     V46    10.0   1_554     S
V42     V54    10.0   .     S
V43     V33    10.0   1_655     S
V43     V39    10.0   1_554     S
V43     V47    10.0   1_554     S
V43     V55    10.0   .     S
V44     V34    10.0   1_655     S
V44     V40    10.0   1_554     S
V44     V48    10.0   1_554     S
V44     V56    10.0   .     S
V45     V35    10.0   1_556     S
V45     V41    10.0   1_556     S
V46     V36    10.0   1_556     S
V46     V42    10.0   1_556     S
V47     V33    10.0   1_656     S
V47     V37    10.0   1_655     S
V47     V43    10.0   1_556     S
V48     V34    10.0   1_656     S
V48     V38    10.0   1_655     S
V48     V44    10.0   1_556     S
V49     V61    10.0   .     S
V49     V53    10.0   .     S
V49     V62    10.0   .     S
V49     V58    10.0   .     S
V50     V62    10.0   .     S
V50     V54    10.0   .     S
V50     V61    10.0   1_565     S
V50     V57    10.0   1_565     S
V51     V63    10.0   .     S
V51     V55    10.0   .     S
V51     V64    10.0   .     S
V51     V60    10.0   .     S
V52     V64    10.0   .     S
V52     V56    10.0   .     S
V52     V63    10.0   1_565     S
V52     V59    10.0   1_565     S
V53     V57    10.0   .     S
V53     V61    10.0   .     S
V53     V58    10.0   .     S
V54     V58    10.0   .     S
V54     V62    10.0   .     S
V54     V57    10.0   1_565     S
V55     V59    10.0   .     S
V55     V63    10.0   .     S
V55     V60    10.0   .     S
V56     V60    10.0   .     S
V56     V64    10.0   .     S
V56     V59    10.0   1_565     S
V57     V50    10.0   1_545     S
V57     V54    10.0   1_545     S
V57     V61    10.0   .     S
V58     V62    10.0   .     S
V59     V52    10.0   1_545     S
V59     V56    10.0   1_545     S
V59     V63    10.0   .     S
V60     V64    10.0   .     S
V61     V50    10.0   1_545     S
V63     V52    10.0   1_545     S
