data_yfh
_audit_creation_date              2019-12-31
_audit_creation_method            'Pymatgen'
_symmetry_space_group_name_H-M    'P1'
_symmetry_Int_Tables_number       1
loop_
_symmetry_equiv_pos_as_xyz
  x,y,z
_cell_length_a                    38.79
_cell_length_b                    38.79
_cell_length_c                    33.348
_cell_angle_alpha                 90.0
_cell_angle_beta                 90.0
_cell_angle_gamma                 90.0
loop_
_atom_site_label
_atom_site_type_symbol
_atom_site_fract_x
_atom_site_fract_y
_atom_site_fract_z
V1     V     0.1527   0.0258   0.1076
V2     V     0.1527   0.5258   0.1076
V3     V     0.6527   0.0258   0.1076
V4     V     0.6527   0.5258   0.1076
V5     V     0.0258   0.1527   0.8924
V6     V     0.0258   0.6527   0.8924
V7     V     0.5258   0.1527   0.8924
V8     V     0.5258   0.6527   0.8924
V9     V     0.2242   0.4027   0.3576
V10     V     0.2242   0.9027   0.3576
V11     V     0.7242   0.4027   0.3576
V12     V     0.7242   0.9027   0.3576
V13     V     0.0973   0.2758   0.1424
V14     V     0.0973   0.7758   0.1424
V15     V     0.5973   0.2758   0.1424
V16     V     0.5973   0.7758   0.1424
V17     V     0.3473   0.4742   0.6076
V18     V     0.3473   0.9742   0.6076
V19     V     0.8473   0.4742   0.6076
V20     V     0.8473   0.9742   0.6076
V21     V     0.4742   0.3473   0.3924
V22     V     0.4742   0.8473   0.3924
V23     V     0.9742   0.3473   0.3924
V24     V     0.9742   0.8473   0.3924
V25     V     0.2758   0.0973   0.8576
V26     V     0.2758   0.5973   0.8576
V27     V     0.7758   0.0973   0.8576
V28     V     0.7758   0.5973   0.8576
V29     V     0.4027   0.2242   0.6424
V30     V     0.4027   0.7242   0.6424
V31     V     0.9027   0.2242   0.6424
V32     V     0.9027   0.7242   0.6424
loop_
_geom_bond_atom_site_label_1
_geom_bond_atom_site_label_2
_geom_bond_distance
_geom_bond_site_symmetry_2
_ccdc_geom_bond_type
V1     V25    10.0   1_554     S
V1     V13    10.0   .     S
V1     V5    10.0   1_554     S
V1     V10    10.0   1_545     S
V1     V14    10.0   1_545     S
V2     V26    10.0   1_554     S
V2     V14    10.0   .     S
V2     V6    10.0   1_554     S
V2     V9    10.0   .     S
V2     V13    10.0   .     S
V3     V27    10.0   1_554     S
V3     V15    10.0   .     S
V3     V7    10.0   1_554     S
V3     V12    10.0   1_545     S
V3     V16    10.0   1_545     S
V4     V28    10.0   1_554     S
V4     V16    10.0   .     S
V4     V8    10.0   1_554     S
V4     V11    10.0   .     S
V4     V15    10.0   .     S
V5     V25    10.0   .     S
V5     V13    10.0   1_556     S
V5     V1    10.0   1_556     S
V5     V31    10.0   1_455     S
V5     V27    10.0   1_455     S
V6     V26    10.0   .     S
V6     V14    10.0   1_556     S
V6     V2    10.0   1_556     S
V6     V32    10.0   1_455     S
V6     V28    10.0   1_455     S
V7     V27    10.0   .     S
V7     V15    10.0   1_556     S
V7     V3    10.0   1_556     S
V7     V29    10.0   .     S
V7     V25    10.0   .     S
V8     V28    10.0   .     S
V8     V16    10.0   1_556     S
V8     V4    10.0   1_556     S
V8     V30    10.0   .     S
V8     V26    10.0   .     S
V9     V17    10.0   .     S
V9     V21    10.0   .     S
V9     V13    10.0   .     S
V9     V23    10.0   1_455     S
V10     V1    10.0   1_565     S
V10     V18    10.0   .     S
V10     V22    10.0   .     S
V10     V14    10.0   .     S
V10     V24    10.0   1_455     S
V11     V19    10.0   .     S
V11     V23    10.0   .     S
V11     V15    10.0   .     S
V11     V21    10.0   .     S
V12     V3    10.0   1_565     S
V12     V20    10.0   .     S
V12     V24    10.0   .     S
V12     V16    10.0   .     S
V12     V22    10.0   .     S
V13     V5    10.0   1_554     S
V13     V23    10.0   1_455     S
V14     V6    10.0   1_554     S
V14     V1    10.0   1_565     S
V14     V24    10.0   1_455     S
V15     V7    10.0   1_554     S
V15     V21    10.0   .     S
V16     V8    10.0   1_554     S
V16     V3    10.0   1_565     S
V16     V22    10.0   .     S
V17     V26    10.0   .     S
V17     V30    10.0   .     S
V17     V21    10.0   .     S
V17     V29    10.0   .     S
V18     V25    10.0   1_565     S
V18     V29    10.0   1_565     S
V18     V22    10.0   .     S
V18     V30    10.0   .     S
V19     V28    10.0   .     S
V19     V32    10.0   .     S
V19     V23    10.0   .     S
V19     V31    10.0   .     S
V20     V27    10.0   1_565     S
V20     V31    10.0   1_565     S
V20     V24    10.0   .     S
V20     V32    10.0   .     S
V21     V29    10.0   .     S
V22     V30    10.0   .     S
V23     V13    10.0   1_655     S
V23     V9    10.0   1_655     S
V23     V31    10.0   .     S
V24     V14    10.0   1_655     S
V24     V10    10.0   1_655     S
V24     V32    10.0   .     S
V25     V1    10.0   1_556     S
V25     V18    10.0   1_545     S
V25     V29    10.0   .     S
V26     V2    10.0   1_556     S
V26     V30    10.0   .     S
V27     V3    10.0   1_556     S
V27     V20    10.0   1_545     S
V27     V5    10.0   1_655     S
V27     V31    10.0   .     S
V28     V4    10.0   1_556     S
V28     V6    10.0   1_655     S
V28     V32    10.0   .     S
V29     V18    10.0   1_545     S
V31     V20    10.0   1_545     S
V31     V5    10.0   1_655     S
V32     V6    10.0   1_655     S
