data_yfk
_audit_creation_date              2019-12-31
_audit_creation_method            'Pymatgen'
_symmetry_space_group_name_H-M    'P1'
_symmetry_Int_Tables_number       1
loop_
_symmetry_equiv_pos_as_xyz
  x,y,z
_cell_length_a                    30.7428
_cell_length_b                    30.7428
_cell_length_c                    37.5656
_cell_angle_alpha                 90.0
_cell_angle_beta                 90.0
_cell_angle_gamma                 90.0
loop_
_atom_site_label
_atom_site_type_symbol
_atom_site_fract_x
_atom_site_fract_y
_atom_site_fract_z
V1     V     0.8659   0.408   0.2809
V2     V     0.8659   0.408   0.7809
V3     V     0.8659   0.092   0.3441
V4     V     0.8659   0.092   0.8441
V5     V     0.908   0.8659   0.1559
V6     V     0.908   0.8659   0.6559
V7     V     0.592   0.8659   0.2191
V8     V     0.592   0.8659   0.7191
V9     V     0.592   0.6341   0.4059
V10     V     0.592   0.6341   0.9059
V11     V     0.908   0.6341   0.4691
V12     V     0.908   0.6341   0.9691
V13     V     0.092   0.3659   0.4691
V14     V     0.092   0.3659   0.9691
V15     V     0.408   0.3659   0.4059
V16     V     0.408   0.3659   0.9059
V17     V     0.1341   0.592   0.2809
V18     V     0.1341   0.592   0.7809
V19     V     0.1341   0.908   0.3441
V20     V     0.1341   0.908   0.8441
V21     V     0.6341   0.092   0.0309
V22     V     0.6341   0.092   0.5309
V23     V     0.6341   0.408   0.0941
V24     V     0.6341   0.408   0.5941
V25     V     0.092   0.1341   0.1559
V26     V     0.092   0.1341   0.6559
V27     V     0.408   0.1341   0.2191
V28     V     0.408   0.1341   0.7191
V29     V     0.3659   0.908   0.0309
V30     V     0.3659   0.908   0.5309
V31     V     0.3659   0.592   0.0941
V32     V     0.3659   0.592   0.5941
loop_
_geom_bond_atom_site_label_1
_geom_bond_atom_site_label_2
_geom_bond_distance
_geom_bond_site_symmetry_2
_ccdc_geom_bond_type
V1     V3    10.0   .     S
V1     V13    10.0   1_655     S
V1     V11    10.0   .     S
V1     V17    10.0   1_655     S
V1     V23    10.0   .     S
V2     V4    10.0   .     S
V2     V14    10.0   1_655     S
V2     V12    10.0   .     S
V2     V18    10.0   1_655     S
V2     V24    10.0   .     S
V3     V25    10.0   1_655     S
V3     V5    10.0   1_545     S
V3     V19    10.0   1_645     S
V3     V22    10.0   .     S
V4     V26    10.0   1_655     S
V4     V6    10.0   1_545     S
V4     V20    10.0   1_645     S
V4     V21    10.0   1_556     S
V5     V7    10.0   .     S
V5     V3    10.0   1_565     S
V5     V19    10.0   1_655     S
V5     V25    10.0   1_665     S
V5     V12    10.0   1_554     S
V6     V8    10.0   .     S
V6     V4    10.0   1_565     S
V6     V20    10.0   1_655     S
V6     V26    10.0   1_665     S
V6     V11    10.0   .     S
V7     V21    10.0   1_565     S
V7     V29    10.0   .     S
V7     V27    10.0   1_565     S
V7     V9    10.0   .     S
V8     V22    10.0   1_565     S
V8     V30    10.0   .     S
V8     V28    10.0   1_565     S
V8     V10    10.0   .     S
V9     V11    10.0   .     S
V9     V24    10.0   .     S
V9     V32    10.0   .     S
V9     V15    10.0   .     S
V10     V12    10.0   .     S
V10     V23    10.0   1_556     S
V10     V31    10.0   1_556     S
V10     V16    10.0   .     S
V11     V17    10.0   1_655     S
V11     V13    10.0   1_655     S
V12     V18    10.0   1_655     S
V12     V14    10.0   1_655     S
V12     V5    10.0   1_556     S
V13     V1    10.0   1_455     S
V13     V15    10.0   .     S
V13     V17    10.0   .     S
V13     V11    10.0   1_455     S
V13     V26    10.0   .     S
V14     V2    10.0   1_455     S
V14     V16    10.0   .     S
V14     V18    10.0   .     S
V14     V12    10.0   1_455     S
V14     V25    10.0   1_556     S
V15     V32    10.0   .     S
V15     V24    10.0   .     S
V15     V27    10.0   .     S
V16     V31    10.0   1_556     S
V16     V23    10.0   1_556     S
V16     V28    10.0   .     S
V17     V1    10.0   1_455     S
V17     V19    10.0   .     S
V17     V11    10.0   1_455     S
V17     V31    10.0   .     S
V18     V2    10.0   1_455     S
V18     V20    10.0   .     S
V18     V12    10.0   1_455     S
V18     V32    10.0   .     S
V19     V5    10.0   1_455     S
V19     V25    10.0   1_565     S
V19     V3    10.0   1_465     S
V19     V30    10.0   .     S
V20     V6    10.0   1_455     S
V20     V26    10.0   1_565     S
V20     V4    10.0   1_465     S
V20     V29    10.0   1_556     S
V21     V7    10.0   1_545     S
V21     V23    10.0   .     S
V21     V27    10.0   .     S
V21     V29    10.0   1_545     S
V21     V4    10.0   1_554     S
V22     V8    10.0   1_545     S
V22     V24    10.0   .     S
V22     V28    10.0   .     S
V22     V30    10.0   1_545     S
V23     V10    10.0   1_554     S
V23     V16    10.0   1_554     S
V23     V31    10.0   .     S
V24     V32    10.0   .     S
V25     V3    10.0   1_455     S
V25     V27    10.0   .     S
V25     V19    10.0   1_545     S
V25     V5    10.0   1_445     S
V25     V14    10.0   1_554     S
V26     V4    10.0   1_455     S
V26     V28    10.0   .     S
V26     V20    10.0   1_545     S
V26     V6    10.0   1_445     S
V27     V29    10.0   1_545     S
V27     V7    10.0   1_545     S
V28     V30    10.0   1_545     S
V28     V8    10.0   1_545     S
V29     V27    10.0   1_565     S
V29     V31    10.0   .     S
V29     V21    10.0   1_565     S
V29     V20    10.0   1_554     S
V30     V28    10.0   1_565     S
V30     V32    10.0   .     S
V30     V22    10.0   1_565     S
V31     V16    10.0   1_554     S
V31     V10    10.0   1_554     S
