data_yfl
_audit_creation_date              2019-12-31
_audit_creation_method            'Pymatgen'
_symmetry_space_group_name_H-M    'P1'
_symmetry_Int_Tables_number       1
loop_
_symmetry_equiv_pos_as_xyz
  x,y,z
_cell_length_a                    37.91
_cell_length_b                    37.91
_cell_length_c                    59.389
_cell_angle_alpha                 90.0
_cell_angle_beta                 90.0
_cell_angle_gamma                 90.0
loop_
_atom_site_label
_atom_site_type_symbol
_atom_site_fract_x
_atom_site_fract_y
_atom_site_fract_z
V1     V     0.0421   0.125   0.9405
V2     V     0.0421   0.625   0.9405
V3     V     0.5421   0.125   0.9405
V4     V     0.5421   0.625   0.9405
V5     V     0.4579   0.375   0.9405
V6     V     0.4579   0.875   0.9405
V7     V     0.9579   0.375   0.9405
V8     V     0.9579   0.875   0.9405
V9     V     0.125   0.4579   0.0595
V10     V     0.125   0.9579   0.0595
V11     V     0.625   0.4579   0.0595
V12     V     0.625   0.9579   0.0595
V13     V     0.375   0.0421   0.0595
V14     V     0.375   0.5421   0.0595
V15     V     0.875   0.0421   0.0595
V16     V     0.875   0.5421   0.0595
V17     V     0.375   0.0421   0.6905
V18     V     0.375   0.5421   0.6905
V19     V     0.875   0.0421   0.6905
V20     V     0.875   0.5421   0.6905
V21     V     0.2079   0.125   0.8095
V22     V     0.2079   0.625   0.8095
V23     V     0.7079   0.125   0.8095
V24     V     0.7079   0.625   0.8095
V25     V     0.2921   0.375   0.8095
V26     V     0.2921   0.875   0.8095
V27     V     0.7921   0.375   0.8095
V28     V     0.7921   0.875   0.8095
V29     V     0.125   0.4579   0.6905
V30     V     0.125   0.9579   0.6905
V31     V     0.625   0.4579   0.6905
V32     V     0.625   0.9579   0.6905
V33     V     0.2921   0.375   0.4405
V34     V     0.2921   0.875   0.4405
V35     V     0.7921   0.375   0.4405
V36     V     0.7921   0.875   0.4405
V37     V     0.125   0.2921   0.5595
V38     V     0.125   0.7921   0.5595
V39     V     0.625   0.2921   0.5595
V40     V     0.625   0.7921   0.5595
V41     V     0.375   0.2079   0.5595
V42     V     0.375   0.7079   0.5595
V43     V     0.875   0.2079   0.5595
V44     V     0.875   0.7079   0.5595
V45     V     0.2079   0.125   0.4405
V46     V     0.2079   0.625   0.4405
V47     V     0.7079   0.125   0.4405
V48     V     0.7079   0.625   0.4405
V49     V     0.4579   0.375   0.3095
V50     V     0.4579   0.875   0.3095
V51     V     0.9579   0.375   0.3095
V52     V     0.9579   0.875   0.3095
V53     V     0.375   0.2079   0.1905
V54     V     0.375   0.7079   0.1905
V55     V     0.875   0.2079   0.1905
V56     V     0.875   0.7079   0.1905
V57     V     0.0421   0.125   0.3095
V58     V     0.0421   0.625   0.3095
V59     V     0.5421   0.125   0.3095
V60     V     0.5421   0.625   0.3095
V61     V     0.125   0.2921   0.1905
V62     V     0.125   0.7921   0.1905
V63     V     0.625   0.2921   0.1905
V64     V     0.625   0.7921   0.1905
loop_
_geom_bond_atom_site_label_1
_geom_bond_atom_site_label_2
_geom_bond_distance
_geom_bond_site_symmetry_2
_ccdc_geom_bond_type
V1     V15    10.0   1_456     S
V1     V10    10.0   1_546     S
V1     V8    10.0   1_445     S
V1     V7    10.0   1_455     S
V1     V21    10.0   .     S
V2     V16    10.0   1_456     S
V2     V9    10.0   1_556     S
V2     V7    10.0   1_455     S
V2     V8    10.0   1_455     S
V2     V22    10.0   .     S
V3     V13    10.0   1_556     S
V3     V12    10.0   1_546     S
V3     V6    10.0   1_545     S
V3     V5    10.0   .     S
V3     V23    10.0   .     S
V4     V14    10.0   1_556     S
V4     V11    10.0   1_556     S
V4     V5    10.0   .     S
V4     V6    10.0   .     S
V4     V24    10.0   .     S
V5     V11    10.0   1_556     S
V5     V14    10.0   1_556     S
V5     V25    10.0   .     S
V6     V12    10.0   1_556     S
V6     V13    10.0   1_566     S
V6     V3    10.0   1_565     S
V6     V26    10.0   .     S
V7     V9    10.0   1_656     S
V7     V16    10.0   1_556     S
V7     V2    10.0   1_655     S
V7     V1    10.0   1_655     S
V7     V27    10.0   .     S
V8     V10    10.0   1_656     S
V8     V15    10.0   1_566     S
V8     V1    10.0   1_665     S
V8     V2    10.0   1_655     S
V8     V28    10.0   .     S
V9     V7    10.0   1_454     S
V9     V2    10.0   1_554     S
V9     V16    10.0   1_455     S
V9     V14    10.0   .     S
V9     V61    10.0   .     S
V10     V8    10.0   1_454     S
V10     V1    10.0   1_564     S
V10     V15    10.0   1_465     S
V10     V13    10.0   1_565     S
V10     V62    10.0   .     S
V11     V5    10.0   1_554     S
V11     V4    10.0   1_554     S
V11     V14    10.0   .     S
V11     V16    10.0   .     S
V11     V63    10.0   .     S
V12     V6    10.0   1_554     S
V12     V3    10.0   1_564     S
V12     V13    10.0   1_565     S
V12     V15    10.0   1_565     S
V12     V64    10.0   .     S
V13     V3    10.0   1_554     S
V13     V6    10.0   1_544     S
V13     V12    10.0   1_545     S
V13     V10    10.0   1_545     S
V13     V53    10.0   .     S
V14     V4    10.0   1_554     S
V14     V5    10.0   1_554     S
V14     V54    10.0   .     S
V15     V1    10.0   1_654     S
V15     V8    10.0   1_544     S
V15     V10    10.0   1_645     S
V15     V12    10.0   1_545     S
V15     V55    10.0   .     S
V16     V2    10.0   1_654     S
V16     V7    10.0   1_554     S
V16     V9    10.0   1_655     S
V16     V56    10.0   .     S
V17     V26    10.0   1_545     S
V17     V21    10.0   .     S
V17     V30    10.0   1_545     S
V17     V32    10.0   1_545     S
V17     V41    10.0   .     S
V18     V25    10.0   .     S
V18     V22    10.0   .     S
V18     V29    10.0   .     S
V18     V31    10.0   .     S
V18     V42    10.0   .     S
V19     V28    10.0   1_545     S
V19     V23    10.0   .     S
V19     V32    10.0   1_545     S
V19     V30    10.0   1_645     S
V19     V43    10.0   .     S
V20     V27    10.0   .     S
V20     V24    10.0   .     S
V20     V31    10.0   .     S
V20     V29    10.0   1_655     S
V20     V44    10.0   .     S
V21     V30    10.0   1_545     S
V21     V26    10.0   1_545     S
V21     V25    10.0   .     S
V22     V29    10.0   .     S
V22     V25    10.0   .     S
V22     V26    10.0   .     S
V23     V32    10.0   1_545     S
V23     V28    10.0   1_545     S
V23     V27    10.0   .     S
V24     V31    10.0   .     S
V24     V27    10.0   .     S
V24     V28    10.0   .     S
V25     V29    10.0   .     S
V26     V17    10.0   1_565     S
V26     V30    10.0   .     S
V26     V21    10.0   1_565     S
V27     V31    10.0   .     S
V28     V19    10.0   1_565     S
V28     V32    10.0   .     S
V28     V23    10.0   1_565     S
V29     V20    10.0   1_455     S
V29     V37    10.0   .     S
V30     V21    10.0   1_565     S
V30     V17    10.0   1_565     S
V30     V19    10.0   1_465     S
V30     V38    10.0   .     S
V31     V39    10.0   .     S
V32     V23    10.0   1_565     S
V32     V19    10.0   1_565     S
V32     V17    10.0   1_565     S
V32     V40    10.0   .     S
V33     V37    10.0   .     S
V33     V41    10.0   .     S
V33     V45    10.0   .     S
V33     V46    10.0   .     S
V33     V49    10.0   .     S
V34     V38    10.0   .     S
V34     V42    10.0   .     S
V34     V46    10.0   .     S
V34     V45    10.0   1_565     S
V34     V50    10.0   .     S
V35     V39    10.0   .     S
V35     V43    10.0   .     S
V35     V47    10.0   .     S
V35     V48    10.0   .     S
V35     V51    10.0   .     S
V36     V40    10.0   .     S
V36     V44    10.0   .     S
V36     V48    10.0   .     S
V36     V47    10.0   1_565     S
V36     V52    10.0   .     S
V37     V45    10.0   .     S
V37     V41    10.0   .     S
V37     V43    10.0   1_455     S
V38     V46    10.0   .     S
V38     V42    10.0   .     S
V38     V44    10.0   1_455     S
V39     V47    10.0   .     S
V39     V43    10.0   .     S
V39     V41    10.0   .     S
V40     V48    10.0   .     S
V40     V44    10.0   .     S
V40     V42    10.0   .     S
V41     V45    10.0   .     S
V42     V46    10.0   .     S
V43     V47    10.0   .     S
V43     V37    10.0   1_655     S
V44     V48    10.0   .     S
V44     V38    10.0   1_655     S
V45     V34    10.0   1_545     S
V45     V57    10.0   .     S
V46     V58    10.0   .     S
V47     V36    10.0   1_545     S
V47     V59    10.0   .     S
V48     V60    10.0   .     S
V49     V63    10.0   .     S
V49     V53    10.0   .     S
V49     V59    10.0   .     S
V49     V60    10.0   .     S
V50     V64    10.0   .     S
V50     V54    10.0   .     S
V50     V60    10.0   .     S
V50     V59    10.0   1_565     S
V51     V61    10.0   1_655     S
V51     V55    10.0   .     S
V51     V57    10.0   1_655     S
V51     V58    10.0   1_655     S
V52     V62    10.0   1_655     S
V52     V56    10.0   .     S
V52     V58    10.0   1_655     S
V52     V57    10.0   1_665     S
V53     V59    10.0   .     S
V53     V63    10.0   .     S
V53     V61    10.0   .     S
V54     V60    10.0   .     S
V54     V64    10.0   .     S
V54     V62    10.0   .     S
V55     V57    10.0   1_655     S
V55     V61    10.0   1_655     S
V55     V63    10.0   .     S
V56     V58    10.0   1_655     S
V56     V62    10.0   1_655     S
V56     V64    10.0   .     S
V57     V55    10.0   1_455     S
V57     V61    10.0   .     S
V57     V51    10.0   1_455     S
V57     V52    10.0   1_445     S
V58     V56    10.0   1_455     S
V58     V62    10.0   .     S
V58     V52    10.0   1_455     S
V58     V51    10.0   1_455     S
V59     V63    10.0   .     S
V59     V50    10.0   1_545     S
V60     V64    10.0   .     S
V61     V51    10.0   1_455     S
V61     V55    10.0   1_455     S
V62     V52    10.0   1_455     S
V62     V56    10.0   1_455     S
