data_yfn
_audit_creation_date              2019-12-31
_audit_creation_method            'Pymatgen'
_symmetry_space_group_name_H-M    'P1'
_symmetry_Int_Tables_number       1
loop_
_symmetry_equiv_pos_as_xyz
  x,y,z
_cell_length_a                    53.4815
_cell_length_b                    53.4815
_cell_length_c                    35.9896
_cell_angle_alpha                 90.0
_cell_angle_beta                 90.0
_cell_angle_gamma                 90.0
loop_
_atom_site_label
_atom_site_type_symbol
_atom_site_fract_x
_atom_site_fract_y
_atom_site_fract_z
V1     V     0.0408   0.0777   0.0478
V2     V     0.0408   0.0777   0.5478
V3     V     0.1723   0.2092   0.0772
V4     V     0.1723   0.2092   0.5772
V5     V     0.0408   0.4223   0.2978
V6     V     0.0408   0.4223   0.7978
V7     V     0.1723   0.2908   0.3272
V8     V     0.1723   0.2908   0.8272
V9     V     0.9592   0.4223   0.0478
V10     V     0.9592   0.4223   0.5478
V11     V     0.8277   0.2908   0.0772
V12     V     0.8277   0.2908   0.5772
V13     V     0.8277   0.2092   0.3272
V14     V     0.8277   0.2092   0.8272
V15     V     0.9592   0.0777   0.2978
V16     V     0.9592   0.0777   0.7978
V17     V     0.8277   0.7092   0.1728
V18     V     0.8277   0.7092   0.6728
V19     V     0.9592   0.5777   0.2022
V20     V     0.9592   0.5777   0.7022
V21     V     0.8277   0.7908   0.4228
V22     V     0.8277   0.7908   0.9228
V23     V     0.9592   0.9223   0.4522
V24     V     0.9592   0.9223   0.9522
V25     V     0.0408   0.5777   0.4522
V26     V     0.0408   0.5777   0.9522
V27     V     0.1723   0.7092   0.4228
V28     V     0.1723   0.7092   0.9228
V29     V     0.1723   0.7908   0.1728
V30     V     0.1723   0.7908   0.6728
V31     V     0.0408   0.9223   0.2022
V32     V     0.0408   0.9223   0.7022
V33     V     0.3277   0.2908   0.1728
V34     V     0.3277   0.2908   0.6728
V35     V     0.4592   0.4223   0.2022
V36     V     0.4592   0.4223   0.7022
V37     V     0.3277   0.2092   0.4228
V38     V     0.3277   0.2092   0.9228
V39     V     0.4592   0.0777   0.4522
V40     V     0.4592   0.0777   0.9522
V41     V     0.5408   0.4223   0.4522
V42     V     0.5408   0.4223   0.9522
V43     V     0.6723   0.2908   0.4228
V44     V     0.6723   0.2908   0.9228
V45     V     0.6723   0.2092   0.1728
V46     V     0.6723   0.2092   0.6728
V47     V     0.5408   0.0777   0.2022
V48     V     0.5408   0.0777   0.7022
V49     V     0.5408   0.5777   0.2978
V50     V     0.5408   0.5777   0.7978
V51     V     0.6723   0.7092   0.3272
V52     V     0.6723   0.7092   0.8272
V53     V     0.3277   0.7092   0.0772
V54     V     0.3277   0.7092   0.5772
V55     V     0.4592   0.5777   0.0478
V56     V     0.4592   0.5777   0.5478
V57     V     0.6723   0.7908   0.0772
V58     V     0.6723   0.7908   0.5772
V59     V     0.5408   0.9223   0.0478
V60     V     0.5408   0.9223   0.5478
V61     V     0.3277   0.7908   0.3272
V62     V     0.3277   0.7908   0.8272
V63     V     0.4592   0.9223   0.2978
V64     V     0.4592   0.9223   0.7978
loop_
_geom_bond_atom_site_label_1
_geom_bond_atom_site_label_2
_geom_bond_distance
_geom_bond_site_symmetry_2
_ccdc_geom_bond_type
V1     V3    10.0   .     S
V1     V15    10.0   1_455     S
V1     V16    10.0   1_454     S
V1     V24    10.0   1_444     S
V1     V31    10.0   1_545     S
V2     V4    10.0   .     S
V2     V16    10.0   1_455     S
V2     V15    10.0   1_455     S
V2     V23    10.0   1_445     S
V2     V32    10.0   1_545     S
V3     V38    10.0   1_554     S
V3     V33    10.0   .     S
V3     V7    10.0   .     S
V3     V8    10.0   1_554     S
V4     V37    10.0   .     S
V4     V34    10.0   .     S
V4     V8    10.0   .     S
V4     V7    10.0   .     S
V5     V19    10.0   1_455     S
V5     V25    10.0   .     S
V5     V7    10.0   .     S
V5     V9    10.0   1_455     S
V5     V10    10.0   1_455     S
V6     V20    10.0   1_455     S
V6     V26    10.0   .     S
V6     V8    10.0   .     S
V6     V10    10.0   1_455     S
V6     V9    10.0   1_456     S
V7     V37    10.0   .     S
V7     V33    10.0   .     S
V8     V38    10.0   .     S
V8     V34    10.0   .     S
V8     V3    10.0   1_556     S
V9     V26    10.0   1_654     S
V9     V19    10.0   .     S
V9     V11    10.0   .     S
V9     V5    10.0   1_655     S
V9     V6    10.0   1_654     S
V10     V25    10.0   1_655     S
V10     V20    10.0   .     S
V10     V12    10.0   .     S
V10     V6    10.0   1_655     S
V10     V5    10.0   1_655     S
V11     V14    10.0   1_554     S
V11     V13    10.0   .     S
V11     V45    10.0   .     S
V11     V44    10.0   1_554     S
V12     V13    10.0   .     S
V12     V14    10.0   .     S
V12     V46    10.0   .     S
V12     V43    10.0   .     S
V13     V15    10.0   .     S
V13     V43    10.0   .     S
V13     V45    10.0   .     S
V14     V11    10.0   1_556     S
V14     V16    10.0   .     S
V14     V44    10.0   .     S
V14     V46    10.0   .     S
V15     V1    10.0   1_655     S
V15     V2    10.0   1_655     S
V15     V31    10.0   1_645     S
V15     V23    10.0   1_545     S
V16     V2    10.0   1_655     S
V16     V1    10.0   1_656     S
V16     V32    10.0   1_645     S
V16     V24    10.0   1_545     S
V17     V19    10.0   .     S
V17     V21    10.0   .     S
V17     V22    10.0   1_554     S
V17     V57    10.0   .     S
V17     V51    10.0   .     S
V18     V20    10.0   .     S
V18     V22    10.0   .     S
V18     V21    10.0   .     S
V18     V58    10.0   .     S
V18     V52    10.0   .     S
V19     V5    10.0   1_655     S
V19     V26    10.0   1_654     S
V19     V25    10.0   1_655     S
V20     V6    10.0   1_655     S
V20     V25    10.0   1_655     S
V20     V26    10.0   1_655     S
V21     V23    10.0   .     S
V21     V51    10.0   .     S
V21     V58    10.0   .     S
V22     V24    10.0   .     S
V22     V17    10.0   1_556     S
V22     V52    10.0   .     S
V22     V57    10.0   1_556     S
V23     V15    10.0   1_565     S
V23     V2    10.0   1_665     S
V23     V31    10.0   1_655     S
V23     V32    10.0   1_655     S
V24     V16    10.0   1_565     S
V24     V1    10.0   1_666     S
V24     V32    10.0   1_655     S
V24     V31    10.0   1_656     S
V25     V10    10.0   1_455     S
V25     V20    10.0   1_455     S
V25     V27    10.0   .     S
V25     V19    10.0   1_455     S
V26     V9    10.0   1_456     S
V26     V19    10.0   1_456     S
V26     V28    10.0   .     S
V26     V20    10.0   1_455     S
V27     V61    10.0   .     S
V27     V54    10.0   .     S
V27     V30    10.0   .     S
V27     V29    10.0   .     S
V28     V62    10.0   .     S
V28     V53    10.0   1_556     S
V28     V29    10.0   1_556     S
V28     V30    10.0   .     S
V29     V53    10.0   .     S
V29     V61    10.0   .     S
V29     V31    10.0   .     S
V29     V28    10.0   1_554     S
V30     V54    10.0   .     S
V30     V62    10.0   .     S
V30     V32    10.0   .     S
V31     V15    10.0   1_465     S
V31     V1    10.0   1_565     S
V31     V23    10.0   1_455     S
V31     V24    10.0   1_454     S
V32     V16    10.0   1_465     S
V32     V2    10.0   1_565     S
V32     V24    10.0   1_455     S
V32     V23    10.0   1_455     S
V33     V35    10.0   .     S
V33     V37    10.0   .     S
V33     V38    10.0   1_554     S
V34     V36    10.0   .     S
V34     V38    10.0   .     S
V34     V37    10.0   .     S
V35     V42    10.0   1_554     S
V35     V41    10.0   .     S
V35     V49    10.0   .     S
V35     V55    10.0   .     S
V36     V41    10.0   .     S
V36     V42    10.0   .     S
V36     V50    10.0   .     S
V36     V56    10.0   .     S
V37     V39    10.0   .     S
V38     V3    10.0   1_556     S
V38     V40    10.0   .     S
V38     V33    10.0   1_556     S
V39     V47    10.0   .     S
V39     V48    10.0   .     S
V39     V60    10.0   1_545     S
V39     V63    10.0   1_545     S
V40     V48    10.0   .     S
V40     V47    10.0   1_556     S
V40     V59    10.0   1_546     S
V40     V64    10.0   1_545     S
V41     V43    10.0   .     S
V41     V49    10.0   .     S
V41     V56    10.0   .     S
V42     V44    10.0   .     S
V42     V35    10.0   1_556     S
V42     V50    10.0   .     S
V42     V55    10.0   1_556     S
V43     V46    10.0   .     S
V43     V45    10.0   .     S
V44     V11    10.0   1_556     S
V44     V45    10.0   1_556     S
V44     V46    10.0   .     S
V45     V47    10.0   .     S
V45     V44    10.0   1_554     S
V46     V48    10.0   .     S
V47     V40    10.0   1_554     S
V47     V59    10.0   1_545     S
V47     V63    10.0   1_545     S
V48     V60    10.0   1_545     S
V48     V64    10.0   1_545     S
V49     V51    10.0   .     S
V49     V55    10.0   .     S
V49     V56    10.0   .     S
V50     V52    10.0   .     S
V50     V56    10.0   .     S
V50     V55    10.0   1_556     S
V51     V57    10.0   .     S
V51     V58    10.0   .     S
V52     V58    10.0   .     S
V52     V57    10.0   1_556     S
V53     V28    10.0   1_554     S
V53     V55    10.0   .     S
V53     V62    10.0   1_554     S
V53     V61    10.0   .     S
V54     V56    10.0   .     S
V54     V61    10.0   .     S
V54     V62    10.0   .     S
V55     V42    10.0   1_554     S
V55     V50    10.0   1_554     S
V57     V22    10.0   1_554     S
V57     V59    10.0   .     S
V57     V52    10.0   1_554     S
V58     V60    10.0   .     S
V59     V63    10.0   .     S
V59     V64    10.0   1_554     S
V59     V40    10.0   1_564     S
V59     V47    10.0   1_565     S
V60     V64    10.0   .     S
V60     V63    10.0   .     S
V60     V39    10.0   1_565     S
V60     V48    10.0   1_565     S
V61     V63    10.0   .     S
V62     V64    10.0   .     S
V62     V53    10.0   1_556     S
V63     V47    10.0   1_565     S
V63     V39    10.0   1_565     S
V64     V59    10.0   1_556     S
V64     V48    10.0   1_565     S
V64     V40    10.0   1_565     S
