data_yfo
_audit_creation_date              2019-12-31
_audit_creation_method            'Pymatgen'
_symmetry_space_group_name_H-M    'P1'
_symmetry_Int_Tables_number       1
loop_
_symmetry_equiv_pos_as_xyz
  x,y,z
_cell_length_a                    53.8
_cell_length_b                    53.8
_cell_length_c                    29.4654
_cell_angle_alpha                 90.0
_cell_angle_beta                 90.0
_cell_angle_gamma                 90.0
loop_
_atom_site_label
_atom_site_type_symbol
_atom_site_fract_x
_atom_site_fract_y
_atom_site_fract_z
V1     V     0.8182   0.1872   0.3848
V2     V     0.8182   0.1872   0.8848
V3     V     0.8182   0.3128   0.1348
V4     V     0.8182   0.3128   0.6348
V5     V     0.6818   0.1872   0.1152
V6     V     0.6818   0.1872   0.6152
V7     V     0.6818   0.3128   0.3652
V8     V     0.6818   0.3128   0.8652
V9     V     0.8182   0.6872   0.1152
V10     V     0.8182   0.6872   0.6152
V11     V     0.8182   0.8128   0.3652
V12     V     0.8182   0.8128   0.8652
V13     V     0.6818   0.6872   0.3848
V14     V     0.6818   0.6872   0.8848
V15     V     0.6818   0.8128   0.1348
V16     V     0.6818   0.8128   0.6348
V17     V     0.5629   0.9318   0.4902
V18     V     0.5629   0.9318   0.9902
V19     V     0.4372   0.9318   0.2402
V20     V     0.4372   0.9318   0.7402
V21     V     0.4372   0.0682   0.0098
V22     V     0.4372   0.0682   0.5098
V23     V     0.5629   0.0683   0.2598
V24     V     0.5629   0.0683   0.7598
V25     V     0.9372   0.0683   0.2402
V26     V     0.9372   0.0683   0.7402
V27     V     0.0628   0.0682   0.4902
V28     V     0.0628   0.0682   0.9902
V29     V     0.9372   0.9318   0.0098
V30     V     0.9372   0.9318   0.5098
V31     V     0.0628   0.9318   0.2598
V32     V     0.0628   0.9318   0.7598
V33     V     0.9372   0.5682   0.2598
V34     V     0.9372   0.5682   0.7598
V35     V     0.0628   0.5682   0.0098
V36     V     0.0628   0.5682   0.5098
V37     V     0.9372   0.4318   0.4902
V38     V     0.9372   0.4318   0.9902
V39     V     0.0628   0.4318   0.2402
V40     V     0.0628   0.4318   0.7402
V41     V     0.5628   0.4318   0.0098
V42     V     0.5628   0.4318   0.5098
V43     V     0.4372   0.4318   0.2598
V44     V     0.4372   0.4318   0.7598
V45     V     0.5628   0.5682   0.2402
V46     V     0.5628   0.5682   0.7402
V47     V     0.4372   0.5682   0.4902
V48     V     0.4372   0.5682   0.9902
V49     V     0.1817   0.1872   0.1348
V50     V     0.1817   0.1872   0.6348
V51     V     0.1817   0.3128   0.3848
V52     V     0.1817   0.3128   0.8848
V53     V     0.3182   0.1872   0.3652
V54     V     0.3182   0.1872   0.8652
V55     V     0.3182   0.3128   0.1152
V56     V     0.3182   0.3128   0.6152
V57     V     0.1817   0.6872   0.3652
V58     V     0.1817   0.6872   0.8652
V59     V     0.1817   0.8128   0.1152
V60     V     0.1817   0.8128   0.6152
V61     V     0.3182   0.6872   0.1348
V62     V     0.3182   0.6872   0.6348
V63     V     0.3182   0.8128   0.3848
V64     V     0.3182   0.8128   0.8848
loop_
_geom_bond_atom_site_label_1
_geom_bond_atom_site_label_2
_geom_bond_distance
_geom_bond_site_symmetry_2
_ccdc_geom_bond_type
V1     V3    10.0   .     S
V1     V4    10.0   .     S
V1     V7    10.0   .     S
V1     V6    10.0   .     S
V1     V25    10.0   .     S
V2     V4    10.0   .     S
V2     V3    10.0   1_556     S
V2     V8    10.0   .     S
V2     V5    10.0   1_556     S
V2     V26    10.0   .     S
V3     V2    10.0   1_554     S
V3     V5    10.0   .     S
V3     V7    10.0   .     S
V3     V38    10.0   1_554     S
V4     V6    10.0   .     S
V4     V8    10.0   .     S
V4     V37    10.0   .     S
V5     V2    10.0   1_554     S
V5     V7    10.0   .     S
V5     V8    10.0   1_554     S
V5     V23    10.0   .     S
V6     V8    10.0   .     S
V6     V7    10.0   .     S
V6     V24    10.0   .     S
V7     V42    10.0   .     S
V8     V5    10.0   1_556     S
V8     V41    10.0   1_556     S
V9     V12    10.0   1_554     S
V9     V11    10.0   .     S
V9     V14    10.0   1_554     S
V9     V15    10.0   .     S
V9     V33    10.0   .     S
V10     V11    10.0   .     S
V10     V12    10.0   .     S
V10     V13    10.0   .     S
V10     V16    10.0   .     S
V10     V34    10.0   .     S
V11     V13    10.0   .     S
V11     V15    10.0   .     S
V11     V30    10.0   .     S
V12     V9    10.0   1_556     S
V12     V14    10.0   .     S
V12     V16    10.0   .     S
V12     V29    10.0   1_556     S
V13     V16    10.0   .     S
V13     V15    10.0   .     S
V13     V45    10.0   .     S
V14     V15    10.0   1_556     S
V14     V16    10.0   .     S
V14     V9    10.0   1_556     S
V14     V46    10.0   .     S
V15     V14    10.0   1_554     S
V15     V18    10.0   1_554     S
V16     V17    10.0   .     S
V17     V19    10.0   .     S
V17     V20    10.0   .     S
V17     V22    10.0   1_565     S
V17     V23    10.0   1_565     S
V18     V20    10.0   .     S
V18     V19    10.0   1_556     S
V18     V21    10.0   1_566     S
V18     V24    10.0   1_565     S
V18     V15    10.0   1_556     S
V19     V18    10.0   1_554     S
V19     V23    10.0   1_565     S
V19     V21    10.0   1_565     S
V19     V63    10.0   .     S
V20     V24    10.0   1_565     S
V20     V22    10.0   1_565     S
V20     V64    10.0   .     S
V21     V23    10.0   .     S
V21     V24    10.0   1_554     S
V21     V18    10.0   1_544     S
V21     V19    10.0   1_545     S
V21     V54    10.0   1_554     S
V22     V24    10.0   .     S
V22     V23    10.0   .     S
V22     V17    10.0   1_545     S
V22     V20    10.0   1_545     S
V22     V53    10.0   .     S
V23     V17    10.0   1_545     S
V23     V19    10.0   1_545     S
V24     V21    10.0   1_556     S
V24     V18    10.0   1_545     S
V24     V20    10.0   1_545     S
V25     V28    10.0   1_654     S
V25     V27    10.0   1_655     S
V25     V31    10.0   1_645     S
V25     V29    10.0   1_545     S
V26     V27    10.0   1_655     S
V26     V28    10.0   1_655     S
V26     V32    10.0   1_645     S
V26     V30    10.0   1_545     S
V27     V26    10.0   1_455     S
V27     V25    10.0   1_455     S
V27     V30    10.0   1_445     S
V27     V31    10.0   1_545     S
V27     V50    10.0   .     S
V28     V25    10.0   1_456     S
V28     V26    10.0   1_455     S
V28     V29    10.0   1_446     S
V28     V32    10.0   1_545     S
V28     V49    10.0   1_556     S
V29     V12    10.0   1_554     S
V29     V25    10.0   1_565     S
V29     V28    10.0   1_664     S
V29     V31    10.0   1_655     S
V29     V32    10.0   1_654     S
V30     V26    10.0   1_565     S
V30     V27    10.0   1_665     S
V30     V32    10.0   1_655     S
V30     V31    10.0   1_655     S
V31     V25    10.0   1_465     S
V31     V27    10.0   1_565     S
V31     V29    10.0   1_455     S
V31     V30    10.0   1_455     S
V31     V59    10.0   .     S
V32     V26    10.0   1_465     S
V32     V28    10.0   1_565     S
V32     V30    10.0   1_455     S
V32     V29    10.0   1_456     S
V32     V60    10.0   .     S
V33     V36    10.0   1_655     S
V33     V35    10.0   1_655     S
V33     V37    10.0   .     S
V33     V39    10.0   1_655     S
V34     V35    10.0   1_656     S
V34     V36    10.0   1_655     S
V34     V38    10.0   .     S
V34     V40    10.0   1_655     S
V35     V34    10.0   1_454     S
V35     V33    10.0   1_455     S
V35     V38    10.0   1_454     S
V35     V39    10.0   .     S
V35     V58    10.0   1_554     S
V36     V33    10.0   1_455     S
V36     V34    10.0   1_455     S
V36     V37    10.0   1_455     S
V36     V40    10.0   .     S
V36     V57    10.0   .     S
V37     V40    10.0   1_655     S
V37     V39    10.0   1_655     S
V37     V36    10.0   1_655     S
V38     V3    10.0   1_556     S
V38     V39    10.0   1_656     S
V38     V40    10.0   1_655     S
V38     V35    10.0   1_656     S
V39     V38    10.0   1_454     S
V39     V37    10.0   1_455     S
V39     V33    10.0   1_455     S
V39     V51    10.0   .     S
V40     V37    10.0   1_455     S
V40     V38    10.0   1_455     S
V40     V34    10.0   1_455     S
V40     V52    10.0   .     S
V41     V8    10.0   1_554     S
V41     V43    10.0   .     S
V41     V44    10.0   1_554     S
V41     V48    10.0   1_554     S
V41     V45    10.0   .     S
V42     V44    10.0   .     S
V42     V43    10.0   .     S
V42     V47    10.0   .     S
V42     V46    10.0   .     S
V43     V45    10.0   .     S
V43     V47    10.0   .     S
V43     V55    10.0   .     S
V44     V41    10.0   1_556     S
V44     V46    10.0   .     S
V44     V48    10.0   .     S
V44     V56    10.0   .     S
V45     V48    10.0   1_554     S
V45     V47    10.0   .     S
V46     V47    10.0   .     S
V46     V48    10.0   .     S
V47     V62    10.0   .     S
V48     V41    10.0   1_556     S
V48     V45    10.0   1_556     S
V48     V61    10.0   1_556     S
V49     V52    10.0   1_554     S
V49     V51    10.0   .     S
V49     V55    10.0   .     S
V49     V53    10.0   .     S
V49     V28    10.0   1_554     S
V50     V51    10.0   .     S
V50     V52    10.0   .     S
V50     V56    10.0   .     S
V50     V54    10.0   .     S
V51     V53    10.0   .     S
V51     V56    10.0   .     S
V52     V49    10.0   1_556     S
V52     V54    10.0   .     S
V52     V55    10.0   1_556     S
V53     V56    10.0   .     S
V53     V55    10.0   .     S
V54     V55    10.0   1_556     S
V54     V56    10.0   .     S
V54     V21    10.0   1_556     S
V55     V52    10.0   1_554     S
V55     V54    10.0   1_554     S
V57     V59    10.0   .     S
V57     V60    10.0   .     S
V57     V61    10.0   .     S
V57     V63    10.0   .     S
V58     V60    10.0   .     S
V58     V59    10.0   1_556     S
V58     V62    10.0   .     S
V58     V64    10.0   .     S
V58     V35    10.0   1_556     S
V59     V58    10.0   1_554     S
V59     V61    10.0   .     S
V59     V64    10.0   1_554     S
V60     V62    10.0   .     S
V60     V63    10.0   .     S
V61     V48    10.0   1_554     S
V61     V63    10.0   .     S
V61     V64    10.0   1_554     S
V62     V64    10.0   .     S
V62     V63    10.0   .     S
V64     V61    10.0   1_556     S
V64     V59    10.0   1_556     S
