data_yfv
_audit_creation_date              2019-12-31
_audit_creation_method            'Pymatgen'
_symmetry_space_group_name_H-M    'P1'
_symmetry_Int_Tables_number       1
loop_
_symmetry_equiv_pos_as_xyz
  x,y,z
_cell_length_a                    39.9394
_cell_length_b                    39.9394
_cell_length_c                    72.5845
_cell_angle_alpha                 90.0
_cell_angle_beta                 90.0
_cell_angle_gamma                 90.0
loop_
_atom_site_label
_atom_site_type_symbol
_atom_site_fract_x
_atom_site_fract_y
_atom_site_fract_z
V1     V     0.3681   0.1873   0.8096
V2     V     0.3681   0.6873   0.8096
V3     V     0.8681   0.1873   0.8096
V4     V     0.8681   0.6873   0.8096
V5     V     0.3123   0.2431   0.9404
V6     V     0.3123   0.7431   0.9404
V7     V     0.8123   0.2431   0.9404
V8     V     0.8123   0.7431   0.9404
V9     V     0.3819   0.4373   0.8096
V10     V     0.3819   0.9373   0.8096
V11     V     0.8819   0.4373   0.8096
V12     V     0.8819   0.9373   0.8096
V13     V     0.4377   0.4931   0.9404
V14     V     0.4377   0.9931   0.9404
V15     V     0.9377   0.4931   0.9404
V16     V     0.9377   0.9931   0.9404
V17     V     0.1181   0.3127   0.8096
V18     V     0.1181   0.8127   0.8096
V19     V     0.6181   0.3127   0.8096
V20     V     0.6181   0.8127   0.8096
V21     V     0.0623   0.2569   0.9404
V22     V     0.0623   0.7569   0.9404
V23     V     0.5623   0.2569   0.9404
V24     V     0.5623   0.7569   0.9404
V25     V     0.1319   0.0627   0.8096
V26     V     0.1319   0.5627   0.8096
V27     V     0.6319   0.0627   0.8096
V28     V     0.6319   0.5627   0.8096
V29     V     0.1877   0.0069   0.9404
V30     V     0.1877   0.5069   0.9404
V31     V     0.6877   0.0069   0.9404
V32     V     0.6877   0.5069   0.9404
V33     V     0.4377   0.2431   0.0596
V34     V     0.4377   0.7431   0.0596
V35     V     0.9377   0.2431   0.0596
V36     V     0.9377   0.7431   0.0596
V37     V     0.3819   0.1873   0.1904
V38     V     0.3819   0.6873   0.1904
V39     V     0.8819   0.1873   0.1904
V40     V     0.8819   0.6873   0.1904
V41     V     0.1877   0.2569   0.0596
V42     V     0.1877   0.7569   0.0596
V43     V     0.6877   0.2569   0.0596
V44     V     0.6877   0.7569   0.0596
V45     V     0.1319   0.3127   0.1904
V46     V     0.1319   0.8127   0.1904
V47     V     0.6319   0.3127   0.1904
V48     V     0.6319   0.8127   0.1904
V49     V     0.0623   0.0069   0.0596
V50     V     0.0623   0.5069   0.0596
V51     V     0.5623   0.0069   0.0596
V52     V     0.5623   0.5069   0.0596
V53     V     0.1181   0.0627   0.1904
V54     V     0.1181   0.5627   0.1904
V55     V     0.6181   0.0627   0.1904
V56     V     0.6181   0.5627   0.1904
V57     V     0.3123   0.4931   0.0596
V58     V     0.3123   0.9931   0.0596
V59     V     0.8123   0.4931   0.0596
V60     V     0.8123   0.9931   0.0596
V61     V     0.3681   0.4373   0.1904
V62     V     0.3681   0.9373   0.1904
V63     V     0.8681   0.4373   0.1904
V64     V     0.8681   0.9373   0.1904
V65     V     0.3819   0.3127   0.3096
V66     V     0.3819   0.8127   0.3096
V67     V     0.8819   0.3127   0.3096
V68     V     0.8819   0.8127   0.3096
V69     V     0.4377   0.2569   0.4404
V70     V     0.4377   0.7569   0.4404
V71     V     0.9377   0.2569   0.4404
V72     V     0.9377   0.7569   0.4404
V73     V     0.3681   0.0627   0.3096
V74     V     0.3681   0.5627   0.3096
V75     V     0.8681   0.0627   0.3096
V76     V     0.8681   0.5627   0.3096
V77     V     0.3123   0.0069   0.4404
V78     V     0.3123   0.5069   0.4404
V79     V     0.8123   0.0069   0.4404
V80     V     0.8123   0.5069   0.4404
V81     V     0.1319   0.1873   0.3096
V82     V     0.1319   0.6873   0.3096
V83     V     0.6319   0.1873   0.3096
V84     V     0.6319   0.6873   0.3096
V85     V     0.1877   0.2431   0.4404
V86     V     0.1877   0.7431   0.4404
V87     V     0.6877   0.2431   0.4404
V88     V     0.6877   0.7431   0.4404
V89     V     0.0623   0.4931   0.4404
V90     V     0.0623   0.9931   0.4404
V91     V     0.5623   0.4931   0.4404
V92     V     0.5623   0.9931   0.4404
V93     V     0.1181   0.4373   0.3096
V94     V     0.1181   0.9373   0.3096
V95     V     0.6181   0.4373   0.3096
V96     V     0.6181   0.9373   0.3096
V97     V     0.3123   0.2569   0.5596
V98     V     0.3123   0.7569   0.5596
V99     V     0.8123   0.2569   0.5596
V100     V     0.8123   0.7569   0.5596
V101     V     0.3681   0.3127   0.6904
V102     V     0.3681   0.8127   0.6904
V103     V     0.8681   0.3127   0.6904
V104     V     0.8681   0.8127   0.6904
V105     V     0.1181   0.1873   0.6904
V106     V     0.1181   0.6873   0.6904
V107     V     0.6181   0.1873   0.6904
V108     V     0.6181   0.6873   0.6904
V109     V     0.0623   0.2431   0.5596
V110     V     0.0623   0.7431   0.5596
V111     V     0.5623   0.2431   0.5596
V112     V     0.5623   0.7431   0.5596
V113     V     0.1877   0.4931   0.5596
V114     V     0.1877   0.9931   0.5596
V115     V     0.6877   0.4931   0.5596
V116     V     0.6877   0.9931   0.5596
V117     V     0.1319   0.4373   0.6904
V118     V     0.1319   0.9373   0.6904
V119     V     0.6319   0.4373   0.6904
V120     V     0.6319   0.9373   0.6904
V121     V     0.3819   0.0627   0.6904
V122     V     0.3819   0.5627   0.6904
V123     V     0.8819   0.0627   0.6904
V124     V     0.8819   0.5627   0.6904
V125     V     0.4377   0.0069   0.5596
V126     V     0.4377   0.5069   0.5596
V127     V     0.9377   0.0069   0.5596
V128     V     0.9377   0.5069   0.5596
loop_
_geom_bond_atom_site_label_1
_geom_bond_atom_site_label_2
_geom_bond_distance
_geom_bond_site_symmetry_2
_ccdc_geom_bond_type
V1     V5    9.999   .     S
V1     V10    10.0   1_545     S
V1     V9    10.0   .     S
V1     V101    10.0   .     S
V1     V121    10.0   .     S
V2     V6    9.999   .     S
V2     V9    10.0   .     S
V2     V10    10.0   .     S
V2     V102    10.0   .     S
V2     V122    10.0   .     S
V3     V7    9.999   .     S
V3     V12    10.0   1_545     S
V3     V11    10.0   .     S
V3     V103    10.0   .     S
V3     V123    10.0   .     S
V4     V8    9.999   .     S
V4     V11    10.0   .     S
V4     V12    10.0   .     S
V4     V104    10.0   .     S
V4     V124    10.0   .     S
V5     V41    10.0   1_556     S
V5     V33    10.0   1_556     S
V5     V23    10.0   .     S
V5     V21    10.0   .     S
V6     V42    10.0   1_556     S
V6     V34    10.0   1_556     S
V6     V24    10.0   .     S
V6     V22    10.0   .     S
V7     V43    10.0   1_556     S
V7     V35    10.0   1_556     S
V7     V21    10.0   1_655     S
V7     V23    10.0   .     S
V8     V44    10.0   1_556     S
V8     V36    10.0   1_556     S
V8     V22    10.0   1_655     S
V8     V24    10.0   .     S
V9     V13    9.999   .     S
V9     V101    10.0   .     S
V9     V122    10.0   .     S
V10     V1    10.0   1_565     S
V10     V14    9.999   .     S
V10     V102    10.0   .     S
V10     V121    10.0   1_565     S
V11     V15    9.999   .     S
V11     V103    10.0   .     S
V11     V124    10.0   .     S
V12     V3    10.0   1_565     S
V12     V16    9.999   .     S
V12     V104    10.0   .     S
V12     V123    10.0   1_565     S
V13     V57    10.0   1_556     S
V13     V52    10.0   1_556     S
V13     V32    10.0   .     S
V13     V30    10.0   .     S
V14     V58    10.0   1_556     S
V14     V51    10.0   1_566     S
V14     V31    10.0   1_565     S
V14     V29    10.0   1_565     S
V15     V59    10.0   1_556     S
V15     V50    10.0   1_656     S
V15     V30    10.0   1_655     S
V15     V32    10.0   .     S
V16     V60    10.0   1_556     S
V16     V49    10.0   1_666     S
V16     V29    10.0   1_665     S
V16     V31    10.0   1_565     S
V17     V117    10.0   .     S
V17     V105    10.0   .     S
V17     V21    9.999   .     S
V17     V26    10.0   .     S
V17     V25    10.0   .     S
V18     V118    10.0   .     S
V18     V106    10.0   .     S
V18     V22    9.999   .     S
V18     V25    10.0   1_565     S
V18     V26    10.0   .     S
V19     V119    10.0   .     S
V19     V107    10.0   .     S
V19     V23    9.999   .     S
V19     V28    10.0   .     S
V19     V27    10.0   .     S
V20     V120    10.0   .     S
V20     V108    10.0   .     S
V20     V24    9.999   .     S
V20     V27    10.0   1_565     S
V20     V28    10.0   .     S
V21     V35    10.0   1_456     S
V21     V41    10.0   1_556     S
V21     V7    10.0   1_455     S
V22     V36    10.0   1_456     S
V22     V42    10.0   1_556     S
V22     V8    10.0   1_455     S
V23     V33    10.0   1_556     S
V23     V43    10.0   1_556     S
V24     V34    10.0   1_556     S
V24     V44    10.0   1_556     S
V25     V105    10.0   .     S
V25     V118    10.0   1_545     S
V25     V29    9.999   .     S
V25     V18    10.0   1_545     S
V26     V106    10.0   .     S
V26     V117    10.0   .     S
V26     V30    9.999   .     S
V27     V107    10.0   .     S
V27     V120    10.0   1_545     S
V27     V31    9.999   .     S
V27     V20    10.0   1_545     S
V28     V108    10.0   .     S
V28     V119    10.0   .     S
V28     V32    9.999   .     S
V29     V58    10.0   1_546     S
V29     V49    10.0   1_556     S
V29     V16    10.0   1_445     S
V29     V14    10.0   1_545     S
V30     V57    10.0   1_556     S
V30     V50    10.0   1_556     S
V30     V15    10.0   1_455     S
V31     V60    10.0   1_546     S
V31     V51    10.0   1_556     S
V31     V14    10.0   1_545     S
V31     V16    10.0   1_545     S
V32     V59    10.0   1_556     S
V32     V52    10.0   1_556     S
V33     V5    10.0   1_554     S
V33     V23    10.0   1_554     S
V33     V37    9.999   .     S
V33     V41    10.0   .     S
V33     V43    10.0   .     S
V34     V6    10.0   1_554     S
V34     V24    10.0   1_554     S
V34     V38    9.999   .     S
V34     V42    10.0   .     S
V34     V44    10.0   .     S
V35     V7    10.0   1_554     S
V35     V21    10.0   1_654     S
V35     V39    9.999   .     S
V35     V43    10.0   .     S
V35     V41    10.0   1_655     S
V36     V8    10.0   1_554     S
V36     V22    10.0   1_654     S
V36     V40    9.999   .     S
V36     V44    10.0   .     S
V36     V42    10.0   1_655     S
V37     V62    10.0   1_545     S
V37     V61    10.0   .     S
V37     V65    10.0   .     S
V37     V73    10.0   .     S
V38     V61    10.0   .     S
V38     V62    10.0   .     S
V38     V66    10.0   .     S
V38     V74    10.0   .     S
V39     V64    10.0   1_545     S
V39     V63    10.0   .     S
V39     V67    10.0   .     S
V39     V75    10.0   .     S
V40     V63    10.0   .     S
V40     V64    10.0   .     S
V40     V68    10.0   .     S
V40     V76    10.0   .     S
V41     V5    10.0   1_554     S
V41     V21    10.0   1_554     S
V41     V35    10.0   1_455     S
V41     V45    9.999   .     S
V42     V6    10.0   1_554     S
V42     V22    10.0   1_554     S
V42     V36    10.0   1_455     S
V42     V46    9.999   .     S
V43     V7    10.0   1_554     S
V43     V23    10.0   1_554     S
V43     V47    9.999   .     S
V44     V8    10.0   1_554     S
V44     V24    10.0   1_554     S
V44     V48    9.999   .     S
V45     V93    10.0   .     S
V45     V81    10.0   .     S
V45     V54    10.0   .     S
V45     V53    10.0   .     S
V46     V94    10.0   .     S
V46     V82    10.0   .     S
V46     V53    10.0   1_565     S
V46     V54    10.0   .     S
V47     V95    10.0   .     S
V47     V83    10.0   .     S
V47     V56    10.0   .     S
V47     V55    10.0   .     S
V48     V96    10.0   .     S
V48     V84    10.0   .     S
V48     V55    10.0   1_565     S
V48     V56    10.0   .     S
V49     V29    10.0   1_554     S
V49     V16    10.0   1_444     S
V49     V53    9.999   .     S
V49     V58    10.0   1_545     S
V49     V60    10.0   1_445     S
V50     V30    10.0   1_554     S
V50     V15    10.0   1_454     S
V50     V54    9.999   .     S
V50     V57    10.0   .     S
V50     V59    10.0   1_455     S
V51     V31    10.0   1_554     S
V51     V14    10.0   1_544     S
V51     V55    9.999   .     S
V51     V60    10.0   1_545     S
V51     V58    10.0   1_545     S
V52     V32    10.0   1_554     S
V52     V13    10.0   1_554     S
V52     V56    9.999   .     S
V52     V59    10.0   .     S
V52     V57    10.0   .     S
V53     V81    10.0   .     S
V53     V94    10.0   1_545     S
V53     V46    10.0   1_545     S
V54     V82    10.0   .     S
V54     V93    10.0   .     S
V55     V83    10.0   .     S
V55     V96    10.0   1_545     S
V55     V48    10.0   1_545     S
V56     V84    10.0   .     S
V56     V95    10.0   .     S
V57     V30    10.0   1_554     S
V57     V13    10.0   1_554     S
V57     V61    9.999   .     S
V58     V29    10.0   1_564     S
V58     V14    10.0   1_554     S
V58     V62    9.999   .     S
V58     V49    10.0   1_565     S
V58     V51    10.0   1_565     S
V59     V32    10.0   1_554     S
V59     V15    10.0   1_554     S
V59     V63    9.999   .     S
V59     V50    10.0   1_655     S
V60     V31    10.0   1_564     S
V60     V16    10.0   1_554     S
V60     V64    9.999   .     S
V60     V51    10.0   1_565     S
V60     V49    10.0   1_665     S
V61     V65    10.0   .     S
V61     V74    10.0   .     S
V62     V37    10.0   1_565     S
V62     V66    10.0   .     S
V62     V73    10.0   1_565     S
V63     V67    10.0   .     S
V63     V76    10.0   .     S
V64     V39    10.0   1_565     S
V64     V68    10.0   .     S
V64     V75    10.0   1_565     S
V65     V69    9.999   .     S
V65     V74    10.0   .     S
V65     V73    10.0   .     S
V66     V70    9.999   .     S
V66     V73    10.0   1_565     S
V66     V74    10.0   .     S
V67     V71    9.999   .     S
V67     V76    10.0   .     S
V67     V75    10.0   .     S
V68     V72    9.999   .     S
V68     V75    10.0   1_565     S
V68     V76    10.0   .     S
V69     V97    10.0   .     S
V69     V111    10.0   .     S
V69     V87    10.0   .     S
V69     V85    10.0   .     S
V70     V98    10.0   .     S
V70     V112    10.0   .     S
V70     V88    10.0   .     S
V70     V86    10.0   .     S
V71     V99    10.0   .     S
V71     V109    10.0   1_655     S
V71     V85    10.0   1_655     S
V71     V87    10.0   .     S
V72     V100    10.0   .     S
V72     V110    10.0   1_655     S
V72     V86    10.0   1_655     S
V72     V88    10.0   .     S
V73     V62    10.0   1_545     S
V73     V66    10.0   1_545     S
V73     V77    9.999   .     S
V74     V78    9.999   .     S
V75     V64    10.0   1_545     S
V75     V68    10.0   1_545     S
V75     V79    9.999   .     S
V76     V80    9.999   .     S
V77     V114    10.0   1_545     S
V77     V125    10.0   .     S
V77     V90    10.0   1_545     S
V77     V92    10.0   1_545     S
V78     V113    10.0   .     S
V78     V126    10.0   .     S
V78     V89    10.0   .     S
V78     V91    10.0   .     S
V79     V116    10.0   1_545     S
V79     V127    10.0   .     S
V79     V92    10.0   1_545     S
V79     V90    10.0   1_645     S
V80     V115    10.0   .     S
V80     V128    10.0   .     S
V80     V91    10.0   .     S
V80     V89    10.0   1_655     S
V81     V85    9.999   .     S
V81     V93    10.0   .     S
V81     V94    10.0   1_545     S
V82     V86    9.999   .     S
V82     V94    10.0   .     S
V82     V93    10.0   .     S
V83     V87    9.999   .     S
V83     V95    10.0   .     S
V83     V96    10.0   1_545     S
V84     V88    9.999   .     S
V84     V96    10.0   .     S
V84     V95    10.0   .     S
V85     V97    10.0   .     S
V85     V109    10.0   .     S
V85     V71    10.0   1_455     S
V86     V98    10.0   .     S
V86     V110    10.0   .     S
V86     V72    10.0   1_455     S
V87     V99    10.0   .     S
V87     V111    10.0   .     S
V88     V100    10.0   .     S
V88     V112    10.0   .     S
V89     V113    10.0   .     S
V89     V128    10.0   1_455     S
V89     V80    10.0   1_455     S
V89     V93    9.999   .     S
V90     V114    10.0   .     S
V90     V127    10.0   1_465     S
V90     V77    10.0   1_565     S
V90     V79    10.0   1_465     S
V90     V94    9.999   .     S
V91     V115    10.0   .     S
V91     V126    10.0   .     S
V91     V95    9.999   .     S
V92     V116    10.0   .     S
V92     V125    10.0   1_565     S
V92     V79    10.0   1_565     S
V92     V77    10.0   1_565     S
V92     V96    9.999   .     S
V94     V53    10.0   1_565     S
V94     V81    10.0   1_565     S
V96     V55    10.0   1_565     S
V96     V83    10.0   1_565     S
V97     V101    9.999   .     S
V97     V109    10.0   .     S
V97     V111    10.0   .     S
V98     V102    9.999   .     S
V98     V110    10.0   .     S
V98     V112    10.0   .     S
V99     V103    9.999   .     S
V99     V111    10.0   .     S
V99     V109    10.0   1_655     S
V100     V104    9.999   .     S
V100     V112    10.0   .     S
V100     V110    10.0   1_655     S
V101     V122    10.0   .     S
V101     V121    10.0   .     S
V102     V121    10.0   1_565     S
V102     V122    10.0   .     S
V103     V124    10.0   .     S
V103     V123    10.0   .     S
V104     V123    10.0   1_565     S
V104     V124    10.0   .     S
V105     V109    9.999   .     S
V105     V117    10.0   .     S
V105     V118    10.0   1_545     S
V106     V110    9.999   .     S
V106     V118    10.0   .     S
V106     V117    10.0   .     S
V107     V111    9.999   .     S
V107     V119    10.0   .     S
V107     V120    10.0   1_545     S
V108     V112    9.999   .     S
V108     V120    10.0   .     S
V108     V119    10.0   .     S
V109     V71    10.0   1_455     S
V109     V99    10.0   1_455     S
V110     V72    10.0   1_455     S
V110     V100    10.0   1_455     S
V113     V117    9.999   .     S
V113     V128    10.0   1_455     S
V113     V126    10.0   .     S
V114     V77    10.0   1_565     S
V114     V118    9.999   .     S
V114     V127    10.0   1_465     S
V114     V125    10.0   1_565     S
V115     V119    9.999   .     S
V115     V126    10.0   .     S
V115     V128    10.0   .     S
V116     V79    10.0   1_565     S
V116     V120    9.999   .     S
V116     V125    10.0   1_565     S
V116     V127    10.0   1_565     S
V118     V25    10.0   1_565     S
V118     V105    10.0   1_565     S
V120     V27    10.0   1_565     S
V120     V107    10.0   1_565     S
V121     V10    10.0   1_545     S
V121     V102    10.0   1_545     S
V121     V125    9.999   .     S
V122     V126    9.999   .     S
V123     V12    10.0   1_545     S
V123     V104    10.0   1_545     S
V123     V127    9.999   .     S
V124     V128    9.999   .     S
V125     V92    10.0   1_545     S
V125     V116    10.0   1_545     S
V125     V114    10.0   1_545     S
V127     V90    10.0   1_645     S
V127     V114    10.0   1_645     S
V127     V116    10.0   1_545     S
V128     V89    10.0   1_655     S
V128     V113    10.0   1_655     S
