data_ylf
_audit_creation_date              2019-12-31
_audit_creation_method            'Pymatgen'
_symmetry_space_group_name_H-M    'P1'
_symmetry_Int_Tables_number       1
loop_
_symmetry_equiv_pos_as_xyz
  x,y,z
_cell_length_a                    39.9999
_cell_length_b                    39.9999
_cell_length_c                    39.9998
_cell_angle_alpha                 90.0
_cell_angle_beta                 90.0
_cell_angle_gamma                 90.0
loop_
_atom_site_label
_atom_site_type_symbol
_atom_site_fract_x
_atom_site_fract_y
_atom_site_fract_z
Er1     Er     0.2494   0.5   0.125
Er2     Er     0.2494   0.5   0.625
Er3     Er     0.2494   0.5   0.375
Er4     Er     0.2494   0.5   0.875
Er5     Er     0.0   0.7494   0.375
Er6     Er     0.0   0.7494   0.875
Er7     Er     0.0   0.7494   0.125
Er8     Er     0.0   0.7494   0.625
V9     V     0.25   0.75   0.375
V10     V     0.25   0.75   0.875
V11     V     0.25   0.75   0.125
V12     V     0.25   0.75   0.625
Er13     Er     0.5   0.7506   0.125
Er14     Er     0.5   0.7506   0.625
Er15     Er     0.5   0.7506   0.375
Er16     Er     0.5   0.7506   0.875
V17     V     0.75   0.75   0.375
V18     V     0.75   0.75   0.875
V19     V     0.75   0.75   0.125
V20     V     0.75   0.75   0.625
Er21     Er     0.7506   0.5   0.125
Er22     Er     0.7506   0.5   0.625
Er23     Er     0.7506   0.5   0.375
Er24     Er     0.7506   0.5   0.875
Er25     Er     0.7494   0.0   0.375
Er26     Er     0.7494   0.0   0.875
Er27     Er     0.7494   0.0   0.125
Er28     Er     0.7494   0.0   0.625
V29     V     0.75   0.25   0.375
V30     V     0.75   0.25   0.875
V31     V     0.75   0.25   0.125
V32     V     0.75   0.25   0.625
Er33     Er     0.5   0.2494   0.125
Er34     Er     0.5   0.2494   0.625
Er35     Er     0.5   0.2494   0.375
Er36     Er     0.5   0.2494   0.875
Er37     Er     0.2506   0.0   0.375
Er38     Er     0.2506   0.0   0.875
Er39     Er     0.2506   0.0   0.125
Er40     Er     0.2506   0.0   0.625
Er41     Er     0.0   0.2506   0.375
Er42     Er     0.0   0.2506   0.875
Er43     Er     0.0   0.2506   0.125
Er44     Er     0.0   0.2506   0.625
V45     V     0.25   0.25   0.375
V46     V     0.25   0.25   0.875
V47     V     0.25   0.25   0.125
V48     V     0.25   0.25   0.625
loop_
_geom_bond_atom_site_label_1
_geom_bond_atom_site_label_2
_geom_bond_distance
_geom_bond_site_symmetry_2
_ccdc_geom_bond_type
Er1     Er3    10.0   .     S
Er1     V47    10.0   .     S
Er1     V11    10.0   .     S
Er2     Er4    10.0   .     S
Er2     V48    10.0   .     S
Er2     V12    10.0   .     S
Er3     V9    10.0   .     S
Er3     V45    10.0   .     S
Er4     V10    10.0   .     S
Er4     V46    10.0   .     S
Er5     Er8    10.0   .     S
Er5     V17    10.0   1_455     S
Er5     V9    10.0   .     S
Er6     Er7    10.0   1_556     S
Er6     V18    10.0   1_455     S
Er6     V10    10.0   .     S
Er7     Er6    10.0   1_554     S
Er7     V19    10.0   1_455     S
Er7     V11    10.0   .     S
Er8     V20    10.0   1_455     S
Er8     V12    10.0   .     S
V9     V12    10.0   .     S
V9     V11    10.0   .     S
V9     Er37    10.0   1_565     S
V9     Er15    10.0   .     S
V10     V11    10.0   1_556     S
V10     V12    10.0   .     S
V10     Er38    10.0   1_565     S
V10     Er16    10.0   .     S
V11     V10    10.0   1_554     S
V11     Er39    10.0   1_565     S
V11     Er13    10.0   .     S
V12     Er40    10.0   1_565     S
V12     Er14    10.0   .     S
Er13     Er15    10.0   .     S
Er13     V19    10.0   .     S
Er14     Er16    10.0   .     S
Er14     V20    10.0   .     S
Er15     V17    10.0   .     S
Er16     V18    10.0   .     S
V17     V20    10.0   .     S
V17     V19    10.0   .     S
V17     Er25    10.0   1_565     S
V17     Er5    10.0   1_655     S
V17     Er23    10.0   .     S
V18     V19    10.0   1_556     S
V18     V20    10.0   .     S
V18     Er26    10.0   1_565     S
V18     Er6    10.0   1_655     S
V18     Er24    10.0   .     S
V19     V18    10.0   1_554     S
V19     Er7    10.0   1_655     S
V19     Er27    10.0   1_565     S
V19     Er21    10.0   .     S
V20     Er8    10.0   1_655     S
V20     Er28    10.0   1_565     S
V20     Er22    10.0   .     S
Er21     Er23    10.0   .     S
Er21     V31    10.0   .     S
Er22     Er24    10.0   .     S
Er22     V32    10.0   .     S
Er23     V29    10.0   .     S
Er24     V30    10.0   .     S
Er25     V17    10.0   1_545     S
Er25     Er28    10.0   .     S
Er25     V29    10.0   .     S
Er26     V18    10.0   1_545     S
Er26     Er27    10.0   1_556     S
Er26     V30    10.0   .     S
Er27     V19    10.0   1_545     S
Er27     Er26    10.0   1_554     S
Er27     V31    10.0   .     S
Er28     V20    10.0   1_545     S
Er28     V32    10.0   .     S
V29     V32    10.0   .     S
V29     V31    10.0   .     S
V29     Er41    10.0   1_655     S
V29     Er35    10.0   .     S
V30     V31    10.0   1_556     S
V30     V32    10.0   .     S
V30     Er42    10.0   1_655     S
V30     Er36    10.0   .     S
V31     V30    10.0   1_554     S
V31     Er43    10.0   1_655     S
V31     Er33    10.0   .     S
V32     Er44    10.0   1_655     S
V32     Er34    10.0   .     S
Er33     Er35    10.0   .     S
Er33     V47    10.0   .     S
Er34     Er36    10.0   .     S
Er34     V48    10.0   .     S
Er35     V45    10.0   .     S
Er36     V46    10.0   .     S
Er37     V9    10.0   1_545     S
Er37     Er40    10.0   .     S
Er37     V45    10.0   .     S
Er38     V10    10.0   1_545     S
Er38     Er39    10.0   1_556     S
Er38     V46    10.0   .     S
Er39     V11    10.0   1_545     S
Er39     Er38    10.0   1_554     S
Er39     V47    10.0   .     S
Er40     V12    10.0   1_545     S
Er40     V48    10.0   .     S
Er41     V29    10.0   1_455     S
Er41     Er44    10.0   .     S
Er41     V45    10.0   .     S
Er42     V30    10.0   1_455     S
Er42     Er43    10.0   1_556     S
Er42     V46    10.0   .     S
Er43     V31    10.0   1_455     S
Er43     Er42    10.0   1_554     S
Er43     V47    10.0   .     S
Er44     V32    10.0   1_455     S
Er44     V48    10.0   .     S
V45     V48    10.0   .     S
V45     V47    10.0   .     S
V46     V47    10.0   1_556     S
V46     V48    10.0   .     S
V47     V46    10.0   1_554     S
