data_ytw
_audit_creation_date              2019-12-31
_audit_creation_method            'Pymatgen'
_symmetry_space_group_name_H-M    'P1'
_symmetry_Int_Tables_number       1
loop_
_symmetry_equiv_pos_as_xyz
  x,y,z
_cell_length_a                    36.9084
_cell_length_b                    24.5673
_cell_length_c                    33.329
_cell_angle_alpha                 90.0
_cell_angle_beta                 90.0
_cell_angle_gamma                 90.0
loop_
_atom_site_label
_atom_site_type_symbol
_atom_site_fract_x
_atom_site_fract_y
_atom_site_fract_z
Ti1     Ti     0.125   0.25   0.4034
Ti2     Ti     0.125   0.25   0.9034
Ti3     Ti     0.625   0.25   0.4034
Ti4     Ti     0.625   0.25   0.9034
V5     V     0.125   0.6083   0.0419
V6     V     0.125   0.6083   0.5419
V7     V     0.625   0.6083   0.0419
V8     V     0.625   0.6083   0.5419
V9     V     0.125   0.8917   0.0419
V10     V     0.125   0.8917   0.5419
V11     V     0.625   0.8917   0.0419
V12     V     0.625   0.8917   0.5419
Er13     Er     0.0354   0.0709   0.1518
Er14     Er     0.0354   0.0709   0.6518
Er15     Er     0.5354   0.0709   0.1518
Er16     Er     0.5354   0.0709   0.6518
Er17     Er     0.2146   0.4291   0.1518
Er18     Er     0.2146   0.4291   0.6518
Er19     Er     0.7146   0.4291   0.1518
Er20     Er     0.7146   0.4291   0.6518
Er21     Er     0.2146   0.0709   0.1518
Er22     Er     0.2146   0.0709   0.6518
Er23     Er     0.7146   0.0709   0.1518
Er24     Er     0.7146   0.0709   0.6518
Er25     Er     0.0354   0.4291   0.1518
Er26     Er     0.0354   0.4291   0.6518
Er27     Er     0.5354   0.4291   0.1518
Er28     Er     0.5354   0.4291   0.6518
Ti29     Ti     0.375   0.75   0.0966
Ti30     Ti     0.375   0.75   0.5966
Ti31     Ti     0.875   0.75   0.0966
Ti32     Ti     0.875   0.75   0.5966
V33     V     0.375   0.3917   0.4581
V34     V     0.375   0.3917   0.9581
V35     V     0.875   0.3917   0.4581
V36     V     0.875   0.3917   0.9581
V37     V     0.375   0.1083   0.4581
V38     V     0.375   0.1083   0.9581
V39     V     0.875   0.1083   0.4581
V40     V     0.875   0.1083   0.9581
Er41     Er     0.2854   0.9291   0.3482
Er42     Er     0.2854   0.9291   0.8482
Er43     Er     0.7854   0.9291   0.3482
Er44     Er     0.7854   0.9291   0.8482
Er45     Er     0.4646   0.5709   0.3482
Er46     Er     0.4646   0.5709   0.8482
Er47     Er     0.9646   0.5709   0.3482
Er48     Er     0.9646   0.5709   0.8482
Er49     Er     0.4646   0.9291   0.3482
Er50     Er     0.4646   0.9291   0.8482
Er51     Er     0.9646   0.9291   0.3482
Er52     Er     0.9646   0.9291   0.8482
Er53     Er     0.2854   0.5709   0.3482
Er54     Er     0.2854   0.5709   0.8482
Er55     Er     0.7854   0.5709   0.3482
Er56     Er     0.7854   0.5709   0.8482
loop_
_geom_bond_atom_site_label_1
_geom_bond_atom_site_label_2
_geom_bond_distance
_geom_bond_site_symmetry_2
_ccdc_geom_bond_type
Ti1     Er14    9.941   .     S
Ti1     Er22    9.941   .     S
Ti1     V10    9.939   1_545     S
Ti1     Er18    9.941   .     S
Ti1     Er26    9.941   .     S
Ti1     V6    9.939   .     S
Ti1     Er53    10.03   .     S
Ti1     V33    10.029   .     S
Ti1     Er41    10.03   1_545     S
Ti1     V37    10.029   .     S
Ti1     Er13    10.03   .     S
Ti1     Er21    10.03   .     S
Ti1     Er17    10.03   .     S
Ti1     Er25    10.03   .     S
Ti1     Er47    10.03   1_455     S
Ti1     V35    10.029   1_455     S
Ti1     Er51    10.03   1_445     S
Ti1     V39    10.029   1_455     S
Ti2     Er13    9.941   1_556     S
Ti2     Er21    9.941   1_556     S
Ti2     V9    9.939   1_546     S
Ti2     Er17    9.941   1_556     S
Ti2     Er25    9.941   1_556     S
Ti2     V5    9.939   1_556     S
Ti2     Er54    10.03   .     S
Ti2     V34    10.029   .     S
Ti2     Er42    10.03   1_545     S
Ti2     V38    10.029   .     S
Ti2     Er14    10.03   .     S
Ti2     Er22    10.03   .     S
Ti2     Er18    10.03   .     S
Ti2     Er26    10.03   .     S
Ti2     Er48    10.03   1_455     S
Ti2     V36    10.029   1_455     S
Ti2     Er52    10.03   1_445     S
Ti2     V40    10.029   1_455     S
Ti3     Er16    9.941   .     S
Ti3     Er24    9.941   .     S
Ti3     V12    9.939   1_545     S
Ti3     Er20    9.941   .     S
Ti3     Er28    9.941   .     S
Ti3     V8    9.939   .     S
Ti3     Er55    10.03   .     S
Ti3     V35    10.029   .     S
Ti3     Er43    10.03   1_545     S
Ti3     V39    10.029   .     S
Ti3     Er15    10.03   .     S
Ti3     Er23    10.03   .     S
Ti3     Er19    10.03   .     S
Ti3     Er27    10.03   .     S
Ti3     Er45    10.03   .     S
Ti3     V33    10.029   .     S
Ti3     Er49    10.03   1_545     S
Ti3     V37    10.029   .     S
Ti4     Er15    9.941   1_556     S
Ti4     Er23    9.941   1_556     S
Ti4     V11    9.939   1_546     S
Ti4     Er19    9.941   1_556     S
Ti4     Er27    9.941   1_556     S
Ti4     V7    9.939   1_556     S
Ti4     Er56    10.03   .     S
Ti4     V36    10.029   .     S
Ti4     Er44    10.03   1_545     S
Ti4     V40    10.029   .     S
Ti4     Er16    10.03   .     S
Ti4     Er24    10.03   .     S
Ti4     Er20    10.03   .     S
Ti4     Er28    10.03   .     S
Ti4     Er46    10.03   .     S
Ti4     V34    10.029   .     S
Ti4     Er50    10.03   1_545     S
Ti4     V38    10.029   .     S
V5     Ti2    9.939   1_554     S
V5     Ti29    10.029   .     S
V5     Ti31    10.029   1_455     S
V6     Ti30    10.029   .     S
V6     Ti32    10.029   1_455     S
V7     Ti4    9.939   1_554     S
V7     Ti31    10.029   .     S
V7     Ti29    10.029   .     S
V8     Ti32    10.029   .     S
V8     Ti30    10.029   .     S
V9     Ti2    9.939   1_564     S
V9     Ti29    10.029   .     S
V9     Ti31    10.029   1_455     S
V10     Ti1    9.939   1_565     S
V10     Ti30    10.029   .     S
V10     Ti32    10.029   1_455     S
V11     Ti4    9.939   1_564     S
V11     Ti31    10.029   .     S
V11     Ti29    10.029   .     S
V12     Ti3    9.939   1_565     S
V12     Ti32    10.029   .     S
V12     Ti30    10.029   .     S
Er13     Ti2    9.941   1_554     S
Er13     Ti31    10.03   1_445     S
Er14     Ti32    10.03   1_445     S
Er15     Ti4    9.941   1_554     S
Er15     Ti29    10.03   1_545     S
Er16     Ti30    10.03   1_545     S
Er17     Ti2    9.941   1_554     S
Er17     Ti29    10.03   .     S
Er18     Ti30    10.03   .     S
Er19     Ti4    9.941   1_554     S
Er19     Ti31    10.03   .     S
Er20     Ti32    10.03   .     S
Er21     Ti2    9.941   1_554     S
Er21     Ti29    10.03   1_545     S
Er22     Ti30    10.03   1_545     S
Er23     Ti4    9.941   1_554     S
Er23     Ti31    10.03   1_545     S
Er24     Ti32    10.03   1_545     S
Er25     Ti2    9.941   1_554     S
Er25     Ti31    10.03   1_455     S
Er26     Ti32    10.03   1_455     S
Er27     Ti4    9.941   1_554     S
Er27     Ti29    10.03   .     S
Er28     Ti30    10.03   .     S
Ti29     Er42    9.941   1_554     S
Ti29     Er50    9.941   1_554     S
Ti29     V38    9.939   1_564     S
Ti29     Er46    9.941   1_554     S
Ti29     Er54    9.941   1_554     S
Ti29     V34    9.939   1_554     S
Ti29     Er41    10.03   .     S
Ti29     Er49    10.03   .     S
Ti29     Er21    10.03   1_565     S
Ti29     Er45    10.03   .     S
Ti29     Er53    10.03   .     S
Ti29     Er15    10.03   1_565     S
Ti30     Er41    9.941   .     S
Ti30     Er49    9.941   .     S
Ti30     V37    9.939   1_565     S
Ti30     Er45    9.941   .     S
Ti30     Er53    9.941   .     S
Ti30     V33    9.939   .     S
Ti30     Er42    10.03   .     S
Ti30     Er50    10.03   .     S
Ti30     Er22    10.03   1_565     S
Ti30     Er46    10.03   .     S
Ti30     Er54    10.03   .     S
Ti30     Er16    10.03   1_565     S
Ti31     Er44    9.941   1_554     S
Ti31     Er52    9.941   1_554     S
Ti31     V40    9.939   1_564     S
Ti31     Er48    9.941   1_554     S
Ti31     Er56    9.941   1_554     S
Ti31     V36    9.939   1_554     S
Ti31     Er43    10.03   .     S
Ti31     Er51    10.03   .     S
Ti31     Er23    10.03   1_565     S
Ti31     Er47    10.03   .     S
Ti31     Er55    10.03   .     S
Ti31     Er13    10.03   1_665     S
Ti31     V9    10.029   1_655     S
Ti31     Er25    10.03   1_655     S
Ti31     V5    10.029   1_655     S
Ti32     Er43    9.941   .     S
Ti32     Er51    9.941   .     S
Ti32     V39    9.939   1_565     S
Ti32     Er47    9.941   .     S
Ti32     Er55    9.941   .     S
Ti32     V35    9.939   .     S
Ti32     Er44    10.03   .     S
Ti32     Er52    10.03   .     S
Ti32     Er24    10.03   1_565     S
Ti32     Er48    10.03   .     S
Ti32     Er56    10.03   .     S
Ti32     Er14    10.03   1_665     S
Ti32     V10    10.029   1_655     S
Ti32     Er26    10.03   1_655     S
Ti32     V6    10.029   1_655     S
V34     Ti29    9.939   1_556     S
V35     Ti1    10.029   1_655     S
V36     Ti31    9.939   1_556     S
V36     Ti2    10.029   1_655     S
V37     Ti30    9.939   1_545     S
V38     Ti29    9.939   1_546     S
V39     Ti32    9.939   1_545     S
V39     Ti1    10.029   1_655     S
V40     Ti31    9.939   1_546     S
V40     Ti2    10.029   1_655     S
Er41     Ti1    10.03   1_565     S
Er42     Ti29    9.941   1_556     S
Er42     Ti2    10.03   1_565     S
Er43     Ti3    10.03   1_565     S
Er44     Ti31    9.941   1_556     S
Er44     Ti4    10.03   1_565     S
Er46     Ti29    9.941   1_556     S
Er47     Ti1    10.03   1_655     S
Er48     Ti31    9.941   1_556     S
Er48     Ti2    10.03   1_655     S
Er49     Ti3    10.03   1_565     S
Er50     Ti29    9.941   1_556     S
Er50     Ti4    10.03   1_565     S
Er51     Ti1    10.03   1_665     S
Er52     Ti31    9.941   1_556     S
Er52     Ti2    10.03   1_665     S
Er54     Ti29    9.941   1_556     S
Er56     Ti31    9.941   1_556     S
