data_yyz
_audit_creation_date              2019-12-31
_audit_creation_method            'Pymatgen'
_symmetry_space_group_name_H-M    'P1'
_symmetry_Int_Tables_number       1
loop_
_symmetry_equiv_pos_as_xyz
  x,y,z
_cell_length_a                    27.3784
_cell_length_b                    27.3784
_cell_length_c                    42.5305
_cell_angle_alpha                 90.0
_cell_angle_beta                 90.0
_cell_angle_gamma                 120.0
loop_
_atom_site_label
_atom_site_type_symbol
_atom_site_fract_x
_atom_site_fract_y
_atom_site_fract_z
V1     V     0.2026   0.3579   0.8007
V2     V     0.2026   0.8578   0.8007
V3     V     0.7026   0.3579   0.8007
V4     V     0.7026   0.8578   0.8007
V5     V     0.1552   0.3579   0.6993
V6     V     0.1552   0.8578   0.6993
V7     V     0.6552   0.3579   0.6993
V8     V     0.6552   0.8578   0.6993
V9     V     0.3448   0.2026   0.9674
V10     V     0.3448   0.7026   0.9674
V11     V     0.8448   0.2026   0.9674
V12     V     0.8448   0.7026   0.9674
V13     V     0.2974   0.1552   0.8659
V14     V     0.2974   0.6552   0.8659
V15     V     0.7974   0.1552   0.8659
V16     V     0.7974   0.6552   0.8659
V17     V     0.3579   0.2026   0.5326
V18     V     0.3579   0.7026   0.5326
V19     V     0.8579   0.2026   0.5326
V20     V     0.8579   0.7026   0.5326
V21     V     0.3579   0.1552   0.6341
V22     V     0.3579   0.6552   0.6341
V23     V     0.8579   0.1552   0.6341
V24     V     0.8579   0.6552   0.6341
V25     V     0.1552   0.2974   0.4674
V26     V     0.1552   0.7974   0.4674
V27     V     0.6552   0.2974   0.4674
V28     V     0.6552   0.7974   0.4674
V29     V     0.2026   0.3448   0.3659
V30     V     0.2026   0.8448   0.3659
V31     V     0.7026   0.3448   0.3659
V32     V     0.7026   0.8448   0.3659
V33     V     0.1422   0.2974   0.0326
V34     V     0.1422   0.7974   0.0326
V35     V     0.6422   0.2974   0.0326
V36     V     0.6422   0.7974   0.0326
V37     V     0.1422   0.3448   0.1341
V38     V     0.1422   0.8448   0.1341
V39     V     0.6422   0.3448   0.1341
V40     V     0.6422   0.8448   0.1341
V41     V     0.2974   0.1422   0.3007
V42     V     0.2974   0.6422   0.3007
V43     V     0.7974   0.1422   0.3007
V44     V     0.7974   0.6422   0.3007
V45     V     0.3448   0.1422   0.1993
V46     V     0.3448   0.6422   0.1993
V47     V     0.8448   0.1422   0.1993
V48     V     0.8448   0.6422   0.1993
loop_
_geom_bond_atom_site_label_1
_geom_bond_atom_site_label_2
_geom_bond_distance
_geom_bond_site_symmetry_2
_ccdc_geom_bond_type
V1     V22    10.0   .     S
V1     V9    10.0   .     S
V1     V33    10.0   1_556     S
V1     V15    10.0   1_455     S
V2     V21    10.0   1_565     S
V2     V10    10.0   .     S
V2     V34    10.0   1_556     S
V2     V16    10.0   1_455     S
V3     V24    10.0   .     S
V3     V11    10.0   .     S
V3     V35    10.0   1_556     S
V3     V13    10.0   .     S
V4     V23    10.0   1_565     S
V4     V12    10.0   .     S
V4     V36    10.0   1_556     S
V4     V14    10.0   .     S
V5     V14    10.0   .     S
V5     V19    10.0   1_455     S
V5     V25    10.0   .     S
V5     V21    10.0   .     S
V6     V13    10.0   1_565     S
V6     V20    10.0   1_455     S
V6     V26    10.0   .     S
V6     V22    10.0   .     S
V7     V16    10.0   .     S
V7     V17    10.0   .     S
V7     V27    10.0   .     S
V7     V23    10.0   .     S
V8     V15    10.0   1_565     S
V8     V18    10.0   .     S
V8     V28    10.0   .     S
V8     V24    10.0   .     S
V9     V39    10.0   1_556     S
V9     V45    10.0   1_556     S
V9     V34    10.0   1_546     S
V10     V40    10.0   1_556     S
V10     V46    10.0   1_556     S
V10     V33    10.0   1_556     S
V11     V37    10.0   1_656     S
V11     V47    10.0   1_556     S
V11     V36    10.0   1_546     S
V12     V38    10.0   1_656     S
V12     V48    10.0   1_556     S
V12     V35    10.0   1_556     S
V13     V6    10.0   1_545     S
V13     V21    10.0   .     S
V13     V33    10.0   1_556     S
V14     V22    10.0   .     S
V14     V34    10.0   1_556     S
V15     V8    10.0   1_545     S
V15     V23    10.0   .     S
V15     V35    10.0   1_556     S
V15     V1    10.0   1_655     S
V16     V24    10.0   .     S
V16     V36    10.0   1_556     S
V16     V2    10.0   1_655     S
V17     V29    10.0   .     S
V17     V41    10.0   .     S
V17     V26    10.0   1_545     S
V18     V30    10.0   .     S
V18     V42    10.0   .     S
V18     V25    10.0   .     S
V19     V5    10.0   1_655     S
V19     V31    10.0   .     S
V19     V43    10.0   .     S
V19     V28    10.0   1_545     S
V20     V6    10.0   1_655     S
V20     V32    10.0   .     S
V20     V44    10.0   .     S
V20     V27    10.0   .     S
V21     V2    10.0   1_545     S
V21     V27    10.0   .     S
V22     V28    10.0   .     S
V23     V4    10.0   1_545     S
V23     V25    10.0   1_655     S
V24     V26    10.0   1_655     S
V25     V23    10.0   1_455     S
V25     V41    10.0   .     S
V26     V24    10.0   1_455     S
V26     V42    10.0   .     S
V26     V17    10.0   1_565     S
V27     V43    10.0   .     S
V28     V44    10.0   .     S
V28     V19    10.0   1_565     S
V29     V46    10.0   .     S
V29     V37    10.0   .     S
V29     V43    10.0   1_455     S
V30     V45    10.0   1_565     S
V30     V38    10.0   .     S
V30     V44    10.0   1_455     S
V31     V48    10.0   .     S
V31     V39    10.0   .     S
V31     V41    10.0   .     S
V32     V47    10.0   1_565     S
V32     V40    10.0   .     S
V32     V42    10.0   .     S
V33     V13    10.0   1_554     S
V33     V1    10.0   1_554     S
V33     V47    10.0   1_455     S
V33     V10    10.0   1_554     S
V34     V14    10.0   1_554     S
V34     V2    10.0   1_554     S
V34     V48    10.0   1_455     S
V34     V9    10.0   1_564     S
V35     V15    10.0   1_554     S
V35     V3    10.0   1_554     S
V35     V45    10.0   .     S
V35     V12    10.0   1_554     S
V36     V16    10.0   1_554     S
V36     V4    10.0   1_554     S
V36     V46    10.0   .     S
V36     V11    10.0   1_564     S
V37     V11    10.0   1_454     S
V37     V42    10.0   .     S
V37     V45    10.0   .     S
V38     V12    10.0   1_454     S
V38     V41    10.0   1_565     S
V38     V46    10.0   .     S
V39     V9    10.0   1_554     S
V39     V44    10.0   .     S
V39     V47    10.0   .     S
V40     V10    10.0   1_554     S
V40     V43    10.0   1_565     S
V40     V48    10.0   .     S
V41     V38    10.0   1_545     S
V43     V40    10.0   1_545     S
V43     V29    10.0   1_655     S
V44     V30    10.0   1_655     S
V45     V9    10.0   1_554     S
V45     V30    10.0   1_545     S
V46     V10    10.0   1_554     S
V47     V33    10.0   1_655     S
V47     V11    10.0   1_554     S
V47     V32    10.0   1_545     S
V48     V34    10.0   1_655     S
V48     V12    10.0   1_554     S
