data_yzh
_audit_creation_date              2019-12-31
_audit_creation_method            'Pymatgen'
_symmetry_space_group_name_H-M    'P1'
_symmetry_Int_Tables_number       1
loop_
_symmetry_equiv_pos_as_xyz
  x,y,z
_cell_length_a                    40.4791
_cell_length_b                    30.163
_cell_length_c                    42.6641
_cell_angle_alpha                 90.0
_cell_angle_beta                 90.0
_cell_angle_gamma                 90.0
loop_
_atom_site_label
_atom_site_type_symbol
_atom_site_fract_x
_atom_site_fract_y
_atom_site_fract_z
V1     V     0.4584   0.3011   0.25
V2     V     0.4584   0.8011   0.25
V3     V     0.4584   0.0739   0.5
V4     V     0.4584   0.5739   0.5
V5     V     0.5416   0.4489   0.25
V6     V     0.5416   0.9489   0.25
V7     V     0.5416   0.1761   0.0
V8     V     0.5416   0.6761   0.0
V9     V     0.5416   0.1989   0.75
V10     V     0.5416   0.6989   0.75
V11     V     0.5416   0.4261   0.5
V12     V     0.5416   0.9261   0.5
Er13     Er     0.4949   0.4375   0.875
Er14     Er     0.4949   0.9375   0.875
Er15     Er     0.5051   0.3125   0.625
Er16     Er     0.5051   0.8125   0.625
Er17     Er     0.4949   0.1875   0.375
Er18     Er     0.4949   0.6875   0.375
Er19     Er     0.5051   0.0625   0.125
Er20     Er     0.5051   0.5625   0.125
V21     V     0.4584   0.3239   1.0
V22     V     0.4584   0.8239   1.0
V23     V     0.4584   0.0511   0.75
V24     V     0.4584   0.5511   0.75
V25     V     0.7915   0.3239   0.25
V26     V     0.7915   0.8239   0.25
V27     V     0.7915   0.0511   0.5
V28     V     0.7915   0.5511   0.5
V29     V     0.7084   0.4261   0.75
V30     V     0.7084   0.9261   0.75
V31     V     0.7084   0.1989   0.5
V32     V     0.7084   0.6989   0.5
V33     V     0.7084   0.1761   0.25
V34     V     0.7084   0.6761   0.25
V35     V     0.7084   0.4489   0.0
V36     V     0.7084   0.9489   0.0
Er37     Er     0.7449   0.0625   0.125
Er38     Er     0.7449   0.5625   0.125
Er39     Er     0.7449   0.3125   0.625
Er40     Er     0.7449   0.8125   0.625
Er41     Er     0.7551   0.4375   0.375
Er42     Er     0.7551   0.9375   0.375
Er43     Er     0.7551   0.1875   0.875
Er44     Er     0.7551   0.6875   0.875
V45     V     0.7915   0.3011   1.0
V46     V     0.7915   0.8011   1.0
V47     V     0.7915   0.0739   0.75
V48     V     0.7915   0.5739   0.75
V49     V     0.9584   0.3239   0.5
V50     V     0.9584   0.8239   0.5
V51     V     0.9584   0.0511   0.25
V52     V     0.9584   0.5511   0.25
V53     V     0.0415   0.4489   0.75
V54     V     0.0415   0.9489   0.75
V55     V     0.0415   0.1761   0.5
V56     V     0.0415   0.6761   0.5
V57     V     0.9584   0.0739   1.0
V58     V     0.9584   0.5739   1.0
V59     V     0.9584   0.3011   0.75
V60     V     0.9584   0.8011   0.75
Er61     Er     0.0051   0.3125   0.125
Er62     Er     0.0051   0.8125   0.125
Er63     Er     0.9949   0.1875   0.875
Er64     Er     0.9949   0.6875   0.875
Er65     Er     0.9949   0.4375   0.375
Er66     Er     0.9949   0.9375   0.375
Er67     Er     0.0051   0.0625   0.625
Er68     Er     0.0051   0.5625   0.625
V69     V     0.0415   0.4261   0.0
V70     V     0.0415   0.9261   0.0
V71     V     0.0415   0.1989   0.25
V72     V     0.0415   0.6989   0.25
V73     V     0.2915   0.0739   0.25
V74     V     0.2915   0.5739   0.25
V75     V     0.2915   0.3011   0.5
V76     V     0.2915   0.8011   0.5
V77     V     0.2084   0.1761   0.75
V78     V     0.2084   0.6761   0.75
V79     V     0.2084   0.4489   0.5
V80     V     0.2084   0.9489   0.5
V81     V     0.2915   0.0511   1.0
V82     V     0.2915   0.5511   1.0
V83     V     0.2915   0.3239   0.75
V84     V     0.2915   0.8239   0.75
V85     V     0.2084   0.4261   0.25
V86     V     0.2084   0.9261   0.25
V87     V     0.2084   0.1989   0.0
V88     V     0.2084   0.6989   0.0
Er89     Er     0.2551   0.4375   0.875
Er90     Er     0.2551   0.9375   0.875
Er91     Er     0.2551   0.1875   0.375
Er92     Er     0.2551   0.6875   0.375
Er93     Er     0.2449   0.0625   0.625
Er94     Er     0.2449   0.5625   0.625
Er95     Er     0.2449   0.3125   0.125
Er96     Er     0.2449   0.8125   0.125
loop_
_geom_bond_atom_site_label_1
_geom_bond_atom_site_label_2
_geom_bond_distance
_geom_bond_site_symmetry_2
_ccdc_geom_bond_type
V1     V21    10.689   1_554     S
V1     Er95    10.163   .     S
V1     V6    11.144   1_545     S
V1     Er19    9.155   .     S
V1     Er20    9.704   .     S
V1     V74    10.646   .     S
V1     V73    9.624   .     S
V2     V22    10.689   1_554     S
V2     Er96    10.163   .     S
V2     V5    11.144   .     S
V2     Er20    9.155   .     S
V2     Er19    9.704   1_565     S
V2     V73    10.646   1_565     S
V2     V74    9.624   .     S
V3     V23    10.689   .     S
V3     Er93    10.163   .     S
V3     V11    11.144   .     S
V3     Er15    9.155   .     S
V3     Er16    9.704   1_545     S
V3     V76    10.646   1_545     S
V3     V75    9.624   .     S
V4     V24    10.689   .     S
V4     Er94    10.163   .     S
V4     V12    11.144   .     S
V4     Er16    9.155   .     S
V4     Er15    9.704   .     S
V4     V75    10.646   .     S
V4     V76    9.624   .     S
V5     V11    10.689   .     S
V5     Er41    10.163   .     S
V5     Er18    9.155   .     S
V5     Er17    9.704   .     S
V5     V33    10.646   .     S
V5     V34    9.624   .     S
V6     V12    10.689   .     S
V6     Er42    10.163   .     S
V6     V1    11.144   1_565     S
V6     Er17    9.155   1_565     S
V6     Er18    9.704   .     S
V6     V34    10.646   .     S
V6     V33    9.624   1_565     S
V7     V9    10.689   1_554     S
V7     Er43    10.163   1_554     S
V7     V22    11.144   1_544     S
V7     Er14    9.155   1_544     S
V7     Er13    9.704   1_554     S
V7     V35    10.646   .     S
V7     V36    9.624   1_545     S
V8     V10    10.689   1_554     S
V8     Er44    10.163   1_554     S
V8     V21    11.144   1_554     S
V8     Er13    9.155   1_554     S
V8     Er14    9.704   1_554     S
V8     V36    10.646   .     S
V8     V35    9.624   .     S
V9     V7    10.689   1_556     S
V9     Er43    10.163   .     S
V9     V24    11.144   .     S
V9     Er13    9.155   .     S
V9     Er14    9.704   1_545     S
V9     V30    10.646   1_545     S
V9     V29    9.624   .     S
V10     V8    10.689   1_556     S
V10     Er44    10.163   .     S
V10     V23    11.144   1_565     S
V10     Er14    9.155   .     S
V10     Er13    9.704   .     S
V10     V29    10.646   .     S
V10     V30    9.624   .     S
V11     Er41    10.163   .     S
V11     Er17    9.155   .     S
V11     Er18    9.704   .     S
V11     V32    10.646   .     S
V11     V31    9.624   .     S
V12     Er42    10.163   .     S
V12     Er18    9.155   .     S
V12     Er17    9.704   1_565     S
V12     V31    10.646   1_565     S
V12     V32    9.624   .     S
Er13     V29    10.163   .     S
Er13     V35    10.163   1_556     S
Er13     V8    9.155   1_556     S
Er13     V7    9.704   1_556     S
Er13     Er89    9.708   .     S
Er14     V30    10.163   .     S
Er14     V36    10.163   1_556     S
Er14     V7    9.155   1_566     S
Er14     V8    9.704   1_556     S
Er14     V9    9.704   1_565     S
Er14     Er90    9.708   .     S
Er15     V83    10.163   .     S
Er15     V75    10.163   .     S
Er15     V24    9.155   .     S
Er15     V23    9.704   .     S
Er15     Er39    9.708   .     S
Er16     V84    10.163   .     S
Er16     V76    10.163   .     S
Er16     V23    9.155   1_565     S
Er16     V24    9.704   .     S
Er16     V3    9.704   1_565     S
Er16     Er40    9.708   .     S
Er17     V31    10.163   .     S
Er17     V33    10.163   .     S
Er17     V6    9.155   1_545     S
Er17     V12    9.704   1_545     S
Er17     Er91    9.708   .     S
Er18     V32    10.163   .     S
Er18     V34    10.163   .     S
Er18     Er92    9.708   .     S
Er19     V81    10.163   1_554     S
Er19     V73    10.163   .     S
Er19     V22    9.155   1_544     S
Er19     V2    9.704   1_545     S
Er19     V21    9.704   1_554     S
Er19     Er37    9.708   .     S
Er20     V82    10.163   1_554     S
Er20     V74    10.163   .     S
Er20     V21    9.155   1_554     S
Er20     V22    9.704   1_554     S
Er20     Er38    9.708   .     S
V21     V1    10.689   1_556     S
V21     Er95    10.163   1_556     S
V21     V8    11.144   1_556     S
V21     Er20    9.155   1_556     S
V21     Er19    9.704   1_556     S
V21     V81    10.646   .     S
V21     V82    9.624   .     S
V22     V2    10.689   1_556     S
V22     Er96    10.163   1_556     S
V22     V7    11.144   1_566     S
V22     Er19    9.155   1_566     S
V22     Er20    9.704   1_556     S
V22     V82    10.646   .     S
V22     V81    9.624   1_565     S
V23     Er93    10.163   .     S
V23     V10    11.144   1_545     S
V23     Er16    9.155   1_545     S
V23     V83    10.646   .     S
V23     V84    9.624   1_545     S
V24     Er94    10.163   .     S
V24     V84    10.646   .     S
V24     V83    9.624   .     S
V25     V45    10.689   1_554     S
V25     Er61    10.163   1_655     S
V25     V34    11.144   .     S
V25     Er38    9.155   .     S
V25     Er37    9.704   .     S
V25     V51    10.646   .     S
V25     V52    9.624   .     S
V26     V46    10.689   1_554     S
V26     Er62    10.163   1_655     S
V26     V33    11.144   1_565     S
V26     Er37    9.155   1_565     S
V26     Er38    9.704   .     S
V26     V52    10.646   .     S
V26     V51    9.624   1_565     S
V27     V47    10.689   .     S
V27     Er67    10.163   1_655     S
V27     V32    11.144   1_545     S
V27     Er40    9.155   1_545     S
V27     Er39    9.704   .     S
V27     V49    10.646   .     S
V27     V50    9.624   1_545     S
V28     V48    10.689   .     S
V28     Er68    10.163   1_655     S
V28     V31    11.144   .     S
V28     Er39    9.155   .     S
V28     Er40    9.704   .     S
V28     V50    10.646   .     S
V28     V49    9.624   .     S
V29     V35    10.689   1_556     S
V29     V47    11.144   .     S
V29     Er43    9.155   .     S
V29     Er44    9.704   .     S
V30     V36    10.689   1_556     S
V30     V48    11.144   .     S
V30     Er44    9.155   .     S
V30     Er43    9.704   1_565     S
V30     V9    10.646   1_565     S
V31     V33    10.689   .     S
V31     Er41    9.155   .     S
V31     Er42    9.704   1_545     S
V31     V12    10.646   1_545     S
V32     V34    10.689   .     S
V32     V27    11.144   1_565     S
V32     Er42    9.155   .     S
V32     Er41    9.704   .     S
V33     V26    11.144   1_545     S
V33     Er42    9.155   1_545     S
V33     Er41    9.704   .     S
V33     V6    9.624   1_545     S
V34     Er41    9.155   .     S
V34     Er42    9.704   .     S
V35     V29    10.689   1_554     S
V35     Er13    10.163   1_554     S
V35     V46    11.144   1_554     S
V35     Er44    9.155   1_554     S
V35     Er43    9.704   1_554     S
V36     V30    10.689   1_554     S
V36     Er14    10.163   1_554     S
V36     V45    11.144   1_564     S
V36     Er43    9.155   1_564     S
V36     Er44    9.704   1_554     S
V36     V7    9.624   1_565     S
Er37     V57    10.163   1_554     S
Er37     V51    10.163   .     S
Er37     V45    9.155   1_554     S
Er37     V26    9.155   1_545     S
Er37     V46    9.704   1_544     S
Er38     V58    10.163   1_554     S
Er38     V52    10.163   .     S
Er38     V46    9.155   1_554     S
Er38     V45    9.704   1_554     S
Er39     V49    10.163   .     S
Er39     V59    10.163   .     S
Er39     V47    9.155   .     S
Er39     V48    9.704   .     S
Er40     V50    10.163   .     S
Er40     V60    10.163   .     S
Er40     V27    9.155   1_565     S
Er40     V48    9.155   .     S
Er40     V47    9.704   1_565     S
Er41     Er65    9.708   .     S
Er42     V33    9.155   1_565     S
Er42     V31    9.704   1_565     S
Er42     Er66    9.708   .     S
Er43     V7    10.163   1_556     S
Er43     V36    9.155   1_546     S
Er43     V35    9.704   1_556     S
Er43     V30    9.704   1_545     S
Er43     Er63    9.708   .     S
Er44     V8    10.163   1_556     S
Er44     V35    9.155   1_556     S
Er44     V36    9.704   1_556     S
Er44     Er64    9.708   .     S
V45     V25    10.689   1_556     S
V45     Er61    10.163   1_656     S
V45     V36    11.144   1_546     S
V45     Er37    9.155   1_556     S
V45     Er38    9.704   1_556     S
V45     V58    10.646   .     S
V45     V57    9.624   .     S
V46     V26    10.689   1_556     S
V46     Er62    10.163   1_656     S
V46     V35    11.144   1_556     S
V46     Er38    9.155   1_556     S
V46     Er37    9.704   1_566     S
V46     V57    10.646   1_565     S
V46     V58    9.624   .     S
V47     Er67    10.163   1_655     S
V47     Er40    9.704   1_545     S
V47     V60    10.646   1_545     S
V47     V59    9.624   .     S
V48     Er68    10.163   1_655     S
V48     V59    10.646   .     S
V48     V60    9.624   .     S
V49     V59    10.689   .     S
V49     V56    11.144   1_655     S
V49     Er68    9.155   1_655     S
V49     Er67    9.704   1_655     S
V50     V60    10.689   .     S
V50     V55    11.144   1_665     S
V50     Er67    9.155   1_665     S
V50     Er68    9.704   1_655     S
V50     V27    9.624   1_565     S
V51     V57    10.689   1_554     S
V51     V72    11.144   1_645     S
V51     Er62    9.155   1_645     S
V51     Er61    9.704   1_655     S
V51     V26    9.624   1_545     S
V52     V58    10.689   1_554     S
V52     V71    11.144   1_655     S
V52     Er61    9.155   1_655     S
V52     Er62    9.704   1_655     S
V53     V69    10.689   1_556     S
V53     Er89    10.163   .     S
V53     V60    11.144   1_455     S
V53     Er64    9.155   1_455     S
V53     Er63    9.704   1_455     S
V53     V77    10.646   .     S
V53     V78    9.624   .     S
V54     V70    10.689   1_556     S
V54     Er90    10.163   .     S
V54     V59    11.144   1_465     S
V54     Er63    9.155   1_465     S
V54     Er64    9.704   1_455     S
V54     V78    10.646   .     S
V54     V77    9.624   1_565     S
V55     V71    10.689   .     S
V55     Er91    10.163   .     S
V55     V50    11.144   1_445     S
V55     Er66    9.155   1_445     S
V55     Er65    9.704   1_455     S
V55     V79    10.646   .     S
V55     V80    9.624   1_545     S
V56     V72    10.689   .     S
V56     Er92    10.163   .     S
V56     V49    11.144   1_455     S
V56     Er65    9.155   1_455     S
V56     Er66    9.704   1_455     S
V56     V80    10.646   .     S
V56     V79    9.624   .     S
V57     V51    10.689   1_556     S
V57     Er37    10.163   1_556     S
V57     V69    11.144   1_656     S
V57     Er61    9.155   1_656     S
V57     Er62    9.704   1_646     S
V57     V46    10.646   1_545     S
V58     V52    10.689   1_556     S
V58     Er38    10.163   1_556     S
V58     V70    11.144   1_656     S
V58     Er62    9.155   1_656     S
V58     Er61    9.704   1_656     S
V59     V54    11.144   1_645     S
V59     Er67    9.155   1_655     S
V59     Er68    9.704   1_655     S
V60     V53    11.144   1_655     S
V60     Er68    9.155   1_655     S
V60     Er67    9.704   1_665     S
V60     V47    10.646   1_565     S
Er61     V45    10.163   1_454     S
Er61     V25    10.163   1_455     S
Er61     V57    9.155   1_454     S
Er61     V52    9.155   1_455     S
Er61     V58    9.704   1_454     S
Er61     V51    9.704   1_455     S
Er61     Er95    9.708   .     S
Er62     V46    10.163   1_454     S
Er62     V26    10.163   1_455     S
Er62     V58    9.155   1_454     S
Er62     V51    9.155   1_465     S
Er62     V57    9.704   1_464     S
Er62     V52    9.704   1_455     S
Er62     Er96    9.708   .     S
Er63     V87    10.163   1_656     S
Er63     V77    10.163   1_655     S
Er63     V69    9.155   1_656     S
Er63     V54    9.155   1_645     S
Er63     V70    9.704   1_646     S
Er63     V53    9.704   1_655     S
Er64     V88    10.163   1_656     S
Er64     V78    10.163   1_655     S
Er64     V70    9.155   1_656     S
Er64     V53    9.155   1_655     S
Er64     V69    9.704   1_656     S
Er64     V54    9.704   1_655     S
Er65     V85    10.163   1_655     S
Er65     V79    10.163   1_655     S
Er65     V71    9.155   1_655     S
Er65     V56    9.155   1_655     S
Er65     V55    9.704   1_655     S
Er65     V72    9.704   1_655     S
Er66     V86    10.163   1_655     S
Er66     V80    10.163   1_655     S
Er66     V72    9.155   1_655     S
Er66     V55    9.155   1_665     S
Er66     V56    9.704   1_655     S
Er66     V71    9.704   1_665     S
Er67     V27    10.163   1_455     S
Er67     V47    10.163   1_455     S
Er67     V59    9.155   1_455     S
Er67     V50    9.155   1_445     S
Er67     V60    9.704   1_445     S
Er67     V49    9.704   1_455     S
Er67     Er93    9.708   .     S
Er68     V28    10.163   1_455     S
Er68     V48    10.163   1_455     S
Er68     V60    9.155   1_455     S
Er68     V49    9.155   1_455     S
Er68     V59    9.704   1_455     S
Er68     V50    9.704   1_455     S
Er68     Er94    9.708   .     S
V69     V53    10.689   1_554     S
V69     Er89    10.163   1_554     S
V69     V57    11.144   1_454     S
V69     Er63    9.155   1_454     S
V69     Er64    9.704   1_454     S
V69     V88    10.646   .     S
V69     V87    9.624   .     S
V70     V54    10.689   1_554     S
V70     Er90    10.163   1_554     S
V70     V58    11.144   1_454     S
V70     Er64    9.155   1_454     S
V70     Er63    9.704   1_464     S
V70     V87    10.646   1_565     S
V70     V88    9.624   .     S
V71     Er91    10.163   .     S
V71     V52    11.144   1_455     S
V71     Er65    9.155   1_455     S
V71     Er66    9.704   1_445     S
V71     V86    10.646   1_545     S
V71     V85    9.624   .     S
V72     Er92    10.163   .     S
V72     V51    11.144   1_465     S
V72     Er66    9.155   1_455     S
V72     Er65    9.704   1_455     S
V72     V85    10.646   .     S
V72     V86    9.624   .     S
V73     V81    10.689   1_554     S
V73     V85    11.144   .     S
V73     Er95    9.155   .     S
V73     Er96    9.704   1_545     S
V73     V2    10.646   1_545     S
V74     V82    10.689   1_554     S
V74     V86    11.144   .     S
V74     Er96    9.155   .     S
V74     Er95    9.704   .     S
V75     V83    10.689   .     S
V75     V80    11.144   1_545     S
V75     Er93    9.155   .     S
V75     Er94    9.704   .     S
V76     V84    10.689   .     S
V76     V79    11.144   .     S
V76     Er94    9.155   .     S
V76     Er93    9.704   1_565     S
V76     V3    10.646   1_565     S
V77     V87    10.689   1_556     S
V77     Er63    10.163   1_455     S
V77     V84    11.144   1_545     S
V77     Er90    9.155   1_545     S
V77     Er89    9.704   .     S
V77     V54    9.624   1_545     S
V78     V88    10.689   1_556     S
V78     Er64    10.163   1_455     S
V78     V83    11.144   .     S
V78     Er89    9.155   .     S
V78     Er90    9.704   .     S
V79     V85    10.689   .     S
V79     Er65    10.163   1_455     S
V79     Er92    9.155   .     S
V79     Er91    9.704   .     S
V80     V86    10.689   .     S
V80     Er66    10.163   1_455     S
V80     V75    11.144   1_565     S
V80     Er91    9.155   1_565     S
V80     Er92    9.704   .     S
V80     V55    9.624   1_565     S
V81     V73    10.689   1_556     S
V81     Er19    10.163   1_556     S
V81     V88    11.144   1_546     S
V81     Er96    9.155   1_546     S
V81     Er95    9.704   1_556     S
V81     V22    9.624   1_545     S
V82     V74    10.689   1_556     S
V82     Er20    10.163   1_556     S
V82     V87    11.144   1_556     S
V82     Er95    9.155   1_556     S
V82     Er96    9.704   1_556     S
V83     Er94    9.155   .     S
V83     Er93    9.704   .     S
V84     V77    11.144   1_565     S
V84     Er93    9.155   1_565     S
V84     Er94    9.704   .     S
V84     V23    9.624   1_565     S
V85     Er65    10.163   1_455     S
V85     Er91    9.155   .     S
V85     Er92    9.704   .     S
V86     Er66    10.163   1_455     S
V86     Er92    9.155   .     S
V86     Er91    9.704   1_565     S
V86     V71    10.646   1_565     S
V87     V77    10.689   1_554     S
V87     Er63    10.163   1_454     S
V87     V82    11.144   1_554     S
V87     Er89    9.155   1_554     S
V87     Er90    9.704   1_544     S
V87     V70    10.646   1_545     S
V88     V78    10.689   1_554     S
V88     Er64    10.163   1_454     S
V88     V81    11.144   1_564     S
V88     Er90    9.155   1_554     S
V88     Er89    9.704   1_554     S
Er89     V69    10.163   1_556     S
Er89     V87    9.155   1_556     S
Er89     V88    9.704   1_556     S
Er90     V70    10.163   1_556     S
Er90     V77    9.155   1_565     S
Er90     V88    9.155   1_556     S
Er90     V87    9.704   1_566     S
Er91     V80    9.155   1_545     S
Er91     V86    9.704   1_545     S
Er93     V84    9.155   1_545     S
Er93     V76    9.704   1_545     S
Er95     V21    10.163   1_554     S
Er95     V82    9.155   1_554     S
Er95     V81    9.704   1_554     S
Er96     V22    10.163   1_554     S
Er96     V81    9.155   1_564     S
Er96     V73    9.704   1_565     S
Er96     V82    9.704   1_554     S
