data_zaz
_audit_creation_date              2019-12-31
_audit_creation_method            'Pymatgen'
_symmetry_space_group_name_H-M    'P1'
_symmetry_Int_Tables_number       1
loop_
_symmetry_equiv_pos_as_xyz
  x,y,z
_cell_length_a                    32.6804
_cell_length_b                    36.1515
_cell_length_c                    39.341
_cell_angle_alpha                 90.0
_cell_angle_beta                 90.0
_cell_angle_gamma                 90.0
loop_
_atom_site_label
_atom_site_type_symbol
_atom_site_fract_x
_atom_site_fract_y
_atom_site_fract_z
Ti1     Ti     0.8801   0.5787   0.1286
Ti2     Ti     0.8801   0.5787   0.6286
V3     V     0.8698   0.5754   0.3816
V4     V     0.8698   0.5754   0.8816
V5     V     0.6302   0.4246   0.3816
V6     V     0.6302   0.4246   0.8816
Ti7     Ti     0.6199   0.4213   0.1286
Ti8     Ti     0.6199   0.4213   0.6286
Er9     Er     0.1246   0.6654   0.4839
Er10     Er     0.1246   0.6654   0.9839
Er11     Er     0.3754   0.3346   0.4839
Er12     Er     0.3754   0.3346   0.9839
Ti13     Ti     0.1199   0.4213   0.3713
Ti14     Ti     0.1199   0.4213   0.8714
V15     V     0.1302   0.4246   0.1184
V16     V     0.1302   0.4246   0.6184
V17     V     0.3698   0.5754   0.1184
V18     V     0.3698   0.5754   0.6184
Ti19     Ti     0.3801   0.5787   0.3713
Ti20     Ti     0.3801   0.5787   0.8714
Er21     Er     0.6246   0.6654   0.0161
Er22     Er     0.6246   0.6654   0.5161
Er23     Er     0.8754   0.3346   0.0161
Er24     Er     0.8754   0.3346   0.5161
Ti25     Ti     0.3801   0.9213   0.3786
Ti26     Ti     0.3801   0.9213   0.8786
V27     V     0.1302   0.0754   0.1316
V28     V     0.1302   0.0754   0.6316
V29     V     0.3698   0.9246   0.1316
V30     V     0.3698   0.9246   0.6316
Ti31     Ti     0.1199   0.0787   0.3786
Ti32     Ti     0.1199   0.0787   0.8786
Er33     Er     0.6246   0.8346   0.2339
Er34     Er     0.6246   0.8346   0.7339
Er35     Er     0.8754   0.1654   0.2339
Er36     Er     0.8754   0.1654   0.7339
Ti37     Ti     0.8801   0.9213   0.1214
Ti38     Ti     0.8801   0.9213   0.6214
V39     V     0.8698   0.9246   0.3684
V40     V     0.8698   0.9246   0.8684
V41     V     0.6302   0.0754   0.3684
V42     V     0.6302   0.0754   0.8684
Ti43     Ti     0.6199   0.0787   0.1214
Ti44     Ti     0.6199   0.0787   0.6214
Er45     Er     0.1246   0.8346   0.2661
Er46     Er     0.1246   0.8346   0.7661
Er47     Er     0.3754   0.1654   0.2661
Er48     Er     0.3754   0.1654   0.7661
loop_
_geom_bond_atom_site_label_1
_geom_bond_atom_site_label_2
_geom_bond_distance
_geom_bond_site_symmetry_2
_ccdc_geom_bond_type
Ti1     V4    9.726   1_554     S
Ti1     Er21    9.957   .     S
Ti1     V3    9.957   .     S
Ti1     Er23    9.874   .     S
Ti1     Ti7    10.232   .     S
Ti1     V15    9.899   1_655     S
Ti1     Er10    10.302   1_654     S
Ti2     V3    9.726   .     S
Ti2     Er22    9.957   .     S
Ti2     V4    9.957   .     S
Ti2     Er24    9.874   .     S
Ti2     Ti8    10.232   .     S
Ti2     V16    9.899   1_655     S
Ti2     Er9    10.302   1_655     S
V3     Er9    9.806   1_655     S
V3     V5    9.54   .     S
V3     Er24    10.192   .     S
V3     Er22    10.138   .     S
V3     Ti13    9.899   1_655     S
V4     Er10    9.806   1_655     S
V4     Ti1    9.726   1_556     S
V4     V6    9.54   .     S
V4     Er23    10.192   1_556     S
V4     Er21    10.138   1_556     S
V4     Ti14    9.899   1_655     S
V5     Er11    9.806   .     S
V5     Ti8    9.726   .     S
V5     Ti7    9.957   .     S
V5     Er22    10.192   .     S
V5     Er24    10.138   .     S
V5     Ti19    9.899   .     S
V6     Er12    9.806   .     S
V6     Ti7    9.726   1_556     S
V6     Ti8    9.957   .     S
V6     Er21    10.192   1_556     S
V6     Er23    10.138   1_556     S
V6     Ti20    9.899   .     S
Ti7     V6    9.726   1_554     S
Ti7     Er23    9.957   .     S
Ti7     Er21    9.874   .     S
Ti7     V17    9.899   .     S
Ti7     Er12    10.302   1_554     S
Ti8     Er24    9.957   .     S
Ti8     Er22    9.874   .     S
Ti8     V18    9.899   .     S
Ti8     Er11    10.302   .     S
Er9     V3    9.806   1_455     S
Er9     Er45    10.524   .     S
Er9     Ti19    9.957   .     S
Er9     V16    10.192   .     S
Er9     Ti13    9.874   .     S
Er9     V18    10.138   .     S
Er9     Ti2    10.302   1_455     S
Er10     V4    9.806   1_455     S
Er10     Er46    10.524   .     S
Er10     Ti20    9.957   .     S
Er10     V15    10.192   1_556     S
Er10     Ti14    9.874   .     S
Er10     V17    10.138   1_556     S
Er10     Ti1    10.302   1_456     S
Er11     Er47    10.524   .     S
Er11     Ti13    9.957   .     S
Er11     V18    10.192   .     S
Er11     Ti19    9.874   .     S
Er11     V16    10.138   .     S
Er12     Er48    10.524   .     S
Er12     Ti14    9.957   .     S
Er12     V17    10.192   1_556     S
Er12     Ti20    9.874   .     S
Er12     V15    10.138   1_556     S
Er12     Ti7    10.302   1_556     S
Ti13     V16    9.726   .     S
Ti13     V15    9.957   .     S
Ti13     Ti19    10.232   .     S
Ti13     V3    9.899   1_455     S
Ti13     Er24    10.302   1_455     S
Ti14     V15    9.726   1_556     S
Ti14     V16    9.957   .     S
Ti14     Ti20    10.232   .     S
Ti14     V4    9.899   1_455     S
Ti14     Er23    10.302   1_456     S
V15     Er23    9.806   1_455     S
V15     Ti14    9.726   1_554     S
V15     V17    9.54   .     S
V15     Er10    10.192   1_554     S
V15     Er12    10.138   1_554     S
V15     Ti1    9.899   1_455     S
V16     Er24    9.806   1_455     S
V16     V18    9.54   .     S
V16     Ti2    9.899   1_455     S
V17     Er21    9.806   .     S
V17     Ti20    9.726   1_554     S
V17     Ti19    9.957   .     S
V17     Er12    10.192   1_554     S
V17     Er10    10.138   1_554     S
V18     Er22    9.806   .     S
V18     Ti19    9.726   .     S
V18     Ti20    9.957   .     S
Ti19     Er22    10.302   .     S
Ti20     V17    9.726   1_556     S
Ti20     Er21    10.302   1_556     S
Er21     Er33    10.524   .     S
Er21     V6    10.192   1_554     S
Er21     V4    10.138   1_554     S
Er21     Ti20    10.302   1_554     S
Er22     Er34    10.524   .     S
Er23     V15    9.806   1_655     S
Er23     Er35    10.524   .     S
Er23     V4    10.192   1_554     S
Er23     V6    10.138   1_554     S
Er23     Ti14    10.302   1_654     S
Er24     V16    9.806   1_655     S
Er24     Er36    10.524   .     S
Er24     Ti13    10.302   1_655     S
Ti25     V29    9.726   .     S
Ti25     Er45    9.957   .     S
Ti25     V30    9.957   .     S
Ti25     Er47    9.874   1_565     S
Ti25     Ti31    10.232   1_565     S
Ti25     V41    9.899   1_565     S
Ti25     Er33    10.302   .     S
Ti26     V30    9.726   .     S
Ti26     Er46    9.957   .     S
Ti26     V29    9.957   1_556     S
Ti26     Er48    9.874   1_565     S
Ti26     Ti32    10.232   1_565     S
Ti26     V42    9.899   1_565     S
Ti26     Er34    10.302   .     S
V27     Er35    9.806   1_455     S
V27     Ti31    9.726   .     S
V27     V29    9.54   1_545     S
V27     Ti32    9.957   1_554     S
V27     Er45    10.192   1_545     S
V27     Er47    10.138   .     S
V27     Ti37    9.899   1_445     S
V28     Er36    9.806   1_455     S
V28     Ti32    9.726   .     S
V28     V30    9.54   1_545     S
V28     Ti31    9.957   .     S
V28     Er46    10.192   1_545     S
V28     Er48    10.138   .     S
V28     Ti38    9.899   1_445     S
V29     Er33    9.806   .     S
V29     V27    9.54   1_565     S
V29     Ti26    9.957   1_554     S
V29     Er47    10.192   1_565     S
V29     Er45    10.138   .     S
V29     Ti43    9.899   1_565     S
V30     Er34    9.806   .     S
V30     V28    9.54   1_565     S
V30     Er48    10.192   1_565     S
V30     Er46    10.138   .     S
V30     Ti44    9.899   1_565     S
Ti31     Er47    9.957   .     S
Ti31     Er45    9.874   1_545     S
Ti31     Ti25    10.232   1_545     S
Ti31     V39    9.899   1_445     S
Ti31     Er35    10.302   1_455     S
Ti32     Er48    9.957   .     S
Ti32     V27    9.957   1_556     S
Ti32     Er46    9.874   1_545     S
Ti32     Ti26    10.232   1_545     S
Ti32     V40    9.899   1_445     S
Ti32     Er36    10.302   1_455     S
Er33     Ti37    9.957   .     S
Er33     V41    10.192   1_565     S
Er33     Ti43    9.874   1_565     S
Er33     V39    10.138   .     S
Er34     Ti38    9.957   .     S
Er34     V42    10.192   1_565     S
Er34     Ti44    9.874   1_565     S
Er34     V40    10.138   .     S
Er35     V27    9.806   1_655     S
Er35     Ti43    9.957   .     S
Er35     V39    10.192   1_545     S
Er35     Ti37    9.874   1_545     S
Er35     V41    10.138   .     S
Er35     Ti31    10.302   1_655     S
Er36     V28    9.806   1_655     S
Er36     Ti44    9.957   .     S
Er36     V40    10.192   1_545     S
Er36     Ti38    9.874   1_545     S
Er36     V42    10.138   .     S
Er36     Ti32    10.302   1_655     S
Ti37     V39    9.726   .     S
Ti37     V40    9.957   1_554     S
Ti37     Er35    9.874   1_565     S
Ti37     Ti43    10.232   1_565     S
Ti37     V27    9.899   1_665     S
Ti37     Er45    10.302   1_655     S
Ti38     V40    9.726   .     S
Ti38     V39    9.957   .     S
Ti38     Er36    9.874   1_565     S
Ti38     Ti44    10.232   1_565     S
Ti38     V28    9.899   1_665     S
Ti38     Er46    10.302   1_655     S
V39     Er45    9.806   1_655     S
V39     V41    9.54   1_565     S
V39     Er35    10.192   1_565     S
V39     Ti31    9.899   1_665     S
V40     Er46    9.806   1_655     S
V40     V42    9.54   1_565     S
V40     Ti37    9.957   1_556     S
V40     Er36    10.192   1_565     S
V40     Ti32    9.899   1_665     S
V41     Er47    9.806   .     S
V41     Ti43    9.726   .     S
V41     V39    9.54   1_545     S
V41     Ti44    9.957   .     S
V41     Er33    10.192   1_545     S
V41     Ti25    9.899   1_545     S
V42     Er48    9.806   .     S
V42     Ti44    9.726   .     S
V42     V40    9.54   1_545     S
V42     Ti43    9.957   1_556     S
V42     Er34    10.192   1_545     S
V42     Ti26    9.899   1_545     S
Ti43     V42    9.957   1_554     S
Ti43     Er33    9.874   1_545     S
Ti43     Ti37    10.232   1_545     S
Ti43     V29    9.899   1_545     S
Ti43     Er47    10.302   .     S
Ti44     Er34    9.874   1_545     S
Ti44     Ti38    10.232   1_545     S
Ti44     V30    9.899   1_545     S
Ti44     Er48    10.302   .     S
Er45     V39    9.806   1_455     S
Er45     V27    10.192   1_565     S
Er45     Ti31    9.874   1_565     S
Er45     Ti37    10.302   1_455     S
Er46     V40    9.806   1_455     S
Er46     V28    10.192   1_565     S
Er46     Ti32    9.874   1_565     S
Er46     Ti38    10.302   1_455     S
Er47     V29    10.192   1_545     S
Er47     Ti25    9.874   1_545     S
Er48     V30    10.192   1_545     S
Er48     Ti26    9.874   1_545     S
