data_zbb
_audit_creation_date              2019-12-31
_audit_creation_method            'Pymatgen'
_symmetry_space_group_name_H-M    'P1'
_symmetry_Int_Tables_number       1
loop_
_symmetry_equiv_pos_as_xyz
  x,y,z
_cell_length_a                    39.7812
_cell_length_b                    34.0762
_cell_length_c                    29.877
_cell_angle_alpha                 90.0
_cell_angle_beta                 108.6959
_cell_angle_gamma                 90.0
loop_
_atom_site_label
_atom_site_type_symbol
_atom_site_fract_x
_atom_site_fract_y
_atom_site_fract_z
V1     V     0.457   0.0   0.823
V2     V     0.457   0.5   0.823
Er3     Er     0.5134   0.25   0.6868
Er4     Er     0.5134   0.75   0.6868
Ti5     Ti     0.2784   0.25   0.4322
Ti6     Ti     0.2784   0.75   0.4322
Er7     Er     0.9866   0.0   0.3132
Er8     Er     0.9866   0.5   0.3132
Ti9     Ti     0.2216   0.0   0.5678
Ti10     Ti     0.2216   0.5   0.5678
V11     V     0.043   0.25   0.1771
V12     V     0.043   0.75   0.1771
V13     V     0.543   0.0   0.1771
V14     V     0.543   0.5   0.1771
Er15     Er     0.0134   0.0   0.6868
Er16     Er     0.0134   0.5   0.6868
Ti17     Ti     0.7784   0.0   0.4322
Ti18     Ti     0.7784   0.5   0.4322
Er19     Er     0.4866   0.25   0.3132
Er20     Er     0.4866   0.75   0.3132
Ti21     Ti     0.7216   0.25   0.5678
Ti22     Ti     0.7216   0.75   0.5678
V23     V     0.957   0.25   0.823
V24     V     0.957   0.75   0.823
loop_
_geom_bond_atom_site_label_1
_geom_bond_atom_site_label_2
_geom_bond_distance
_geom_bond_site_symmetry_2
_ccdc_geom_bond_type
V1     Ti9    10.001   .     S
V1     V13    10.021   1_556     S
V1     Er3    10.0   .     S
V1     Er4    10.0   1_545     S
V2     Ti10    10.001   .     S
V2     V14    10.021   1_556     S
V2     Er4    10.0   .     S
V2     Er3    10.0   .     S
Er3     Ti21    10.006   .     S
Er3     Ti5    9.982   .     S
Er4     Ti22    10.006   .     S
Er4     V1    10.0   1_565     S
Er4     Ti6    9.982   .     S
Ti5     V11    10.001   .     S
Ti5     Er19    10.006   .     S
Ti5     Ti9    10.0   .     S
Ti5     Ti10    10.0   .     S
Ti6     V12    10.001   .     S
Ti6     Er20    10.006   .     S
Ti6     Ti10    10.0   .     S
Ti6     Ti9    10.0   1_565     S
Er7     Ti17    10.006   .     S
Er7     Ti9    9.982   1_655     S
Er7     V12    10.0   1_645     S
Er7     V11    10.0   1_655     S
Er8     Ti18    10.006   .     S
Er8     Ti10    9.982   1_655     S
Er8     V11    10.0   1_655     S
Er8     V12    10.0   1_655     S
Ti9     Er15    10.006   .     S
Ti9     Er7    9.982   1_455     S
Ti9     Ti6    10.0   1_545     S
Ti10     Er16    10.006   .     S
Ti10     Er8    9.982   1_455     S
V11     V23    10.021   1_454     S
V11     Er8    10.0   1_455     S
V11     Er7    10.0   1_455     S
V12     V24    10.021   1_454     S
V12     Er7    10.0   1_465     S
V12     Er8    10.0   1_455     S
V13     Ti17    10.001   .     S
V13     V1    10.021   1_554     S
V13     Er19    10.0   .     S
V13     Er20    10.0   1_545     S
V14     Ti18    10.001   .     S
V14     V2    10.021   1_554     S
V14     Er20    10.0   .     S
V14     Er19    10.0   .     S
Er15     Ti17    9.982   1_455     S
Er15     V24    10.0   1_445     S
Er15     V23    10.0   1_455     S
Er16     Ti18    9.982   1_455     S
Er16     V23    10.0   1_455     S
Er16     V24    10.0   1_455     S
Ti17     Er15    9.982   1_655     S
Ti17     Ti21    10.0   .     S
Ti17     Ti22    10.0   1_545     S
Ti18     Er16    9.982   1_655     S
Ti18     Ti22    10.0   .     S
Ti18     Ti21    10.0   .     S
Er19     Ti21    9.982   .     S
Er20     V13    10.0   1_565     S
Er20     Ti22    9.982   .     S
Ti21     V23    10.001   .     S
Ti22     V24    10.001   .     S
Ti22     Ti17    10.0   1_565     S
V23     V11    10.021   1_656     S
V23     Er16    10.0   1_655     S
V23     Er15    10.0   1_655     S
V24     V12    10.021   1_656     S
V24     Er15    10.0   1_665     S
V24     Er16    10.0   1_655     S
