data_zbc
_audit_creation_date              2019-12-31
_audit_creation_method            'Pymatgen'
_symmetry_space_group_name_H-M    'P1'
_symmetry_Int_Tables_number       1
loop_
_symmetry_equiv_pos_as_xyz
  x,y,z
_cell_length_a                    41.0425
_cell_length_b                    34.6414
_cell_length_c                    24.7266
_cell_angle_alpha                 90.0
_cell_angle_beta                 97.9073
_cell_angle_gamma                 90.0
loop_
_atom_site_label
_atom_site_type_symbol
_atom_site_fract_x
_atom_site_fract_y
_atom_site_fract_z
Er1     Er     0.9834   0.0   0.7957
Er2     Er     0.9834   0.5   0.7957
V3     V     0.9097   0.25   0.6168
V4     V     0.9097   0.75   0.6168
Ti5     Ti     0.8363   0.0   0.4381
Ti6     Ti     0.8363   0.5   0.4381
Er7     Er     0.0166   0.0   0.2043
Er8     Er     0.0166   0.5   0.2043
V9     V     0.0902   0.25   0.3832
V10     V     0.0902   0.75   0.3832
Ti11     Ti     0.1637   0.0   0.5619
Ti12     Ti     0.1637   0.5   0.5619
Er13     Er     0.5166   0.25   0.2043
Er14     Er     0.5166   0.75   0.2043
V15     V     0.5902   0.0   0.3832
V16     V     0.5902   0.5   0.3832
Ti17     Ti     0.6637   0.25   0.5619
Ti18     Ti     0.6637   0.75   0.5619
Er19     Er     0.4834   0.25   0.7957
Er20     Er     0.4834   0.75   0.7957
V21     V     0.4098   0.0   0.6168
V22     V     0.4098   0.5   0.6168
Ti23     Ti     0.3363   0.25   0.4381
Ti24     Ti     0.3363   0.75   0.4381
loop_
_geom_bond_atom_site_label_1
_geom_bond_atom_site_label_2
_geom_bond_distance
_geom_bond_site_symmetry_2
_ccdc_geom_bond_type
Er1     V4    10.001   1_545     S
Er1     V3    10.001   .     S
Er1     Ti5    9.998   .     S
Er1     Ti11    10.0   1_655     S
Er1     Er7    10.006   1_656     S
Er2     V3    10.001   .     S
Er2     V4    10.001   .     S
Er2     Ti6    9.998   .     S
Er2     Ti12    10.0   1_655     S
Er2     Er8    10.006   1_656     S
V3     Ti6    9.997   .     S
V3     Ti5    9.997   .     S
V3     V9    10.0   1_655     S
V3     Ti17    10.002   .     S
V4     Ti5    9.997   1_565     S
V4     Er1    10.001   1_565     S
V4     Ti6    9.997   .     S
V4     V10    10.0   1_655     S
V4     Ti18    10.002   .     S
Ti5     V4    9.997   1_545     S
Ti5     Er7    10.0   1_655     S
Ti5     V15    10.002   .     S
Ti6     Er8    10.0   1_655     S
Ti6     V16    10.002   .     S
Er7     Ti5    10.0   1_455     S
Er7     V9    10.001   .     S
Er7     V10    10.001   1_545     S
Er7     Ti11    9.998   .     S
Er7     Er1    10.006   1_454     S
Er8     Ti6    10.0   1_455     S
Er8     V10    10.001   .     S
Er8     V9    10.001   .     S
Er8     Ti12    9.998   .     S
Er8     Er2    10.006   1_454     S
V9     Ti11    9.997   .     S
V9     Ti12    9.997   .     S
V9     V3    10.0   1_455     S
V9     Ti23    10.002   .     S
V10     Ti12    9.997   .     S
V10     Ti11    9.997   1_565     S
V10     Er7    10.001   1_565     S
V10     V4    10.0   1_455     S
V10     Ti24    10.002   .     S
Ti11     V10    9.997   1_545     S
Ti11     Er1    10.0   1_455     S
Ti11     V21    10.002   .     S
Ti12     Er2    10.0   1_455     S
Ti12     V22    10.002   .     S
Er13     V15    10.001   .     S
Er13     V16    10.001   .     S
Er13     Ti17    9.998   .     S
Er13     Ti23    10.0   .     S
Er13     Er19    10.006   1_554     S
Er14     V16    10.001   .     S
Er14     V15    10.001   1_565     S
Er14     Ti18    9.998   .     S
Er14     Ti24    10.0   .     S
Er14     Er20    10.006   1_554     S
V15     Ti17    9.997   .     S
V15     Ti18    9.997   1_545     S
V15     Er14    10.001   1_545     S
V15     V21    10.0   .     S
V16     Ti18    9.997   .     S
V16     Ti17    9.997   .     S
V16     V22    10.0   .     S
Ti17     Er19    10.0   .     S
Ti18     V15    9.997   1_565     S
Ti18     Er20    10.0   .     S
Er19     V21    10.001   .     S
Er19     V22    10.001   .     S
Er19     Ti23    9.998   .     S
Er19     Er13    10.006   1_556     S
Er20     V22    10.001   .     S
Er20     V21    10.001   1_565     S
Er20     Ti24    9.998   .     S
Er20     Er14    10.006   1_556     S
V21     Ti23    9.997   .     S
V21     Ti24    9.997   1_545     S
V21     Er20    10.001   1_545     S
V22     Ti24    9.997   .     S
V22     Ti23    9.997   .     S
Ti24     V21    9.997   1_565     S
