data_zbd
_audit_creation_date              2019-12-31
_audit_creation_method            'Pymatgen'
_symmetry_space_group_name_H-M    'P1'
_symmetry_Int_Tables_number       1
loop_
_symmetry_equiv_pos_as_xyz
  x,y,z
_cell_length_a                    34.1274
_cell_length_b                    34.1633
_cell_length_c                    34.6452
_cell_angle_alpha                 90.0
_cell_angle_beta                 90.0
_cell_angle_gamma                 90.0
loop_
_atom_site_label
_atom_site_type_symbol
_atom_site_fract_x
_atom_site_fract_y
_atom_site_fract_z
Er1     Er     0.8535   0.2806   0.375
Er2     Er     0.8535   0.2806   0.875
V3     V     0.8535   0.5732   0.375
V4     V     0.8535   0.5732   0.875
Er5     Er     0.8535   0.7194   0.125
Er6     Er     0.8535   0.7194   0.625
V7     V     0.8535   0.4268   0.125
V8     V     0.8535   0.4268   0.625
Er9     Er     0.1465   0.2806   0.375
Er10     Er     0.1465   0.2806   0.875
V11     V     0.1465   0.5732   0.375
V12     V     0.1465   0.5732   0.875
Er13     Er     0.1465   0.7194   0.125
Er14     Er     0.1465   0.7194   0.625
V15     V     0.1465   0.4268   0.125
V16     V     0.1465   0.4268   0.625
Er17     Er     0.6465   0.7806   0.375
Er18     Er     0.6465   0.7806   0.875
V19     V     0.6465   0.0732   0.375
V20     V     0.6465   0.0732   0.875
Er21     Er     0.6465   0.2194   0.125
Er22     Er     0.6465   0.2194   0.625
V23     V     0.6465   0.9268   0.125
V24     V     0.6465   0.9268   0.625
Er25     Er     0.3535   0.7806   0.375
Er26     Er     0.3535   0.7806   0.875
V27     V     0.3535   0.0732   0.375
V28     V     0.3535   0.0732   0.875
Er29     Er     0.3535   0.2194   0.125
Er30     Er     0.3535   0.2194   0.625
V31     V     0.3535   0.9268   0.125
V32     V     0.3535   0.9268   0.625
loop_
_geom_bond_atom_site_label_1
_geom_bond_atom_site_label_2
_geom_bond_distance
_geom_bond_site_symmetry_2
_ccdc_geom_bond_type
Er1     V7    9.998   .     S
Er1     V3    9.997   .     S
Er1     V8    9.998   .     S
Er1     Er9    10.002   1_655     S
Er1     V19    10.004   .     S
Er2     V8    9.998   .     S
Er2     V4    9.997   .     S
Er2     V7    9.998   1_556     S
Er2     Er10    10.002   1_655     S
Er2     V20    10.004   .     S
V3     Er5    9.998   .     S
V3     V7    10.002   .     S
V3     Er6    9.998   .     S
V3     V8    10.002   .     S
V3     V11    10.0   1_655     S
V3     Er17    10.004   .     S
V4     Er6    9.998   .     S
V4     V8    10.002   .     S
V4     Er5    9.998   1_556     S
V4     V7    10.002   1_556     S
V4     V12    10.0   1_655     S
V4     Er18    10.004   .     S
Er5     V4    9.998   1_554     S
Er5     V7    9.997   .     S
Er5     Er13    10.002   1_655     S
Er5     V23    10.004   .     S
Er6     V8    9.997   .     S
Er6     Er14    10.002   1_655     S
Er6     V24    10.004   .     S
V7     V4    10.002   1_554     S
V7     Er2    9.998   1_554     S
V7     V15    10.0   1_655     S
V7     Er21    10.004   .     S
V8     V16    10.0   1_655     S
V8     Er22    10.004   .     S
Er9     V11    9.997   .     S
Er9     V16    9.998   .     S
Er9     V15    9.998   .     S
Er9     Er1    10.002   1_455     S
Er9     V27    10.004   .     S
Er10     V12    9.997   .     S
Er10     V15    9.998   1_556     S
Er10     V16    9.998   .     S
Er10     Er2    10.002   1_455     S
Er10     V28    10.004   .     S
V11     Er14    9.998   .     S
V11     V16    10.002   .     S
V11     Er13    9.998   .     S
V11     V15    10.002   .     S
V11     V3    10.0   1_455     S
V11     Er25    10.004   .     S
V12     Er13    9.998   1_556     S
V12     V15    10.002   1_556     S
V12     Er14    9.998   .     S
V12     V16    10.002   .     S
V12     V4    10.0   1_455     S
V12     Er26    10.004   .     S
Er13     V12    9.998   1_554     S
Er13     V15    9.997   .     S
Er13     Er5    10.002   1_455     S
Er13     V31    10.004   .     S
Er14     V16    9.997   .     S
Er14     Er6    10.002   1_455     S
Er14     V32    10.004   .     S
V15     V12    10.002   1_554     S
V15     Er10    9.998   1_554     S
V15     V7    10.0   1_455     S
V15     Er29    10.004   .     S
V16     V8    10.0   1_455     S
V16     Er30    10.004   .     S
Er17     V19    9.997   1_565     S
Er17     V24    9.998   .     S
Er17     V23    9.998   .     S
Er17     Er25    10.002   .     S
Er18     V20    9.997   1_565     S
Er18     V23    9.998   1_556     S
Er18     V24    9.998   .     S
Er18     Er26    10.002   .     S
V19     Er17    9.997   1_545     S
V19     V24    10.002   1_545     S
V19     Er22    9.998   .     S
V19     V23    10.002   1_545     S
V19     Er21    9.998   .     S
V19     V27    10.0   .     S
V20     Er18    9.997   1_545     S
V20     V23    10.002   1_546     S
V20     Er21    9.998   1_556     S
V20     V24    10.002   1_545     S
V20     Er22    9.998   .     S
V20     V28    10.0   .     S
Er21     V20    9.998   1_554     S
Er21     V23    9.997   1_545     S
Er21     Er29    10.002   .     S
Er22     V24    9.997   1_545     S
Er22     Er30    10.002   .     S
V23     Er18    9.998   1_554     S
V23     V20    10.002   1_564     S
V23     V19    10.002   1_565     S
V23     Er21    9.997   1_565     S
V23     V31    10.0   .     S
V24     V19    10.002   1_565     S
V24     V20    10.002   1_565     S
V24     Er22    9.997   1_565     S
V24     V32    10.0   .     S
Er25     V27    9.997   1_565     S
Er25     V31    9.998   .     S
Er25     V32    9.998   .     S
Er26     V28    9.997   1_565     S
Er26     V32    9.998   .     S
Er26     V31    9.998   1_556     S
V27     Er25    9.997   1_545     S
V27     V31    10.002   1_545     S
V27     Er29    9.998   .     S
V27     V32    10.002   1_545     S
V27     Er30    9.998   .     S
V28     Er26    9.997   1_545     S
V28     V32    10.002   1_545     S
V28     Er30    9.998   .     S
V28     V31    10.002   1_546     S
V28     Er29    9.998   1_556     S
Er29     V28    9.998   1_554     S
Er29     V31    9.997   1_545     S
Er30     V32    9.997   1_545     S
V31     V27    10.002   1_565     S
V31     Er26    9.998   1_554     S
V31     V28    10.002   1_564     S
V31     Er29    9.997   1_565     S
V32     V28    10.002   1_565     S
V32     V27    10.002   1_565     S
V32     Er30    9.997   1_565     S
