data_zbf
_audit_creation_date              2019-12-31
_audit_creation_method            'Pymatgen'
_symmetry_space_group_name_H-M    'P1'
_symmetry_Int_Tables_number       1
loop_
_symmetry_equiv_pos_as_xyz
  x,y,z
_cell_length_a                    40.0462
_cell_length_b                    39.9966
_cell_length_c                    34.6424
_cell_angle_alpha                 90.0
_cell_angle_beta                 90.0
_cell_angle_gamma                 90.0
loop_
_atom_site_label
_atom_site_type_symbol
_atom_site_fract_x
_atom_site_fract_y
_atom_site_fract_z
Er1     Er     0.375   0.0   0.25
Er2     Er     0.375   0.0   0.75
Er3     Er     0.375   0.5   0.25
Er4     Er     0.375   0.5   0.75
Er5     Er     0.875   0.0   0.25
Er6     Er     0.875   0.0   0.75
Er7     Er     0.875   0.5   0.25
Er8     Er     0.875   0.5   0.75
Er9     Er     0.125   0.0   0.25
Er10     Er     0.125   0.0   0.75
Er11     Er     0.125   0.5   0.25
Er12     Er     0.125   0.5   0.75
Er13     Er     0.625   0.0   0.25
Er14     Er     0.625   0.0   0.75
Er15     Er     0.625   0.5   0.25
Er16     Er     0.625   0.5   0.75
V17     V     0.1252   0.375   0.0
V18     V     0.1252   0.375   0.5
V19     V     0.1252   0.875   0.0
V20     V     0.1252   0.875   0.5
V21     V     0.6252   0.375   0.0
V22     V     0.6252   0.375   0.5
V23     V     0.6252   0.875   0.0
V24     V     0.6252   0.875   0.5
V25     V     0.3748   0.375   0.0
V26     V     0.3748   0.375   0.5
V27     V     0.3748   0.875   0.0
V28     V     0.3748   0.875   0.5
V29     V     0.8748   0.375   0.0
V30     V     0.8748   0.375   0.5
V31     V     0.8748   0.875   0.0
V32     V     0.8748   0.875   0.5
V33     V     0.1252   0.125   0.0
V34     V     0.1252   0.125   0.5
V35     V     0.1252   0.625   0.0
V36     V     0.1252   0.625   0.5
V37     V     0.6252   0.125   0.0
V38     V     0.6252   0.125   0.5
V39     V     0.6252   0.625   0.0
V40     V     0.6252   0.625   0.5
V41     V     0.3748   0.125   0.0
V42     V     0.3748   0.125   0.5
V43     V     0.3748   0.625   0.0
V44     V     0.3748   0.625   0.5
V45     V     0.8748   0.125   0.0
V46     V     0.8748   0.125   0.5
V47     V     0.8748   0.625   0.0
V48     V     0.8748   0.625   0.5
loop_
_geom_bond_atom_site_label_1
_geom_bond_atom_site_label_2
_geom_bond_distance
_geom_bond_site_symmetry_2
_ccdc_geom_bond_type
Er1     V42    9.999   .     S
Er1     V28    9.999   1_545     S
Er1     V27    9.999   1_545     S
Er1     V41    9.999   .     S
Er1     Er13    10.012   .     S
Er1     Er9    10.012   .     S
Er2     V41    9.999   1_556     S
Er2     V27    9.999   1_546     S
Er2     V28    9.999   1_545     S
Er2     V42    9.999   .     S
Er2     Er14    10.012   .     S
Er2     Er10    10.012   .     S
Er3     V44    9.999   .     S
Er3     V26    9.999   .     S
Er3     V25    9.999   .     S
Er3     V43    9.999   .     S
Er3     Er15    10.012   .     S
Er3     Er11    10.012   .     S
Er4     V43    9.999   1_556     S
Er4     V25    9.999   1_556     S
Er4     V26    9.999   .     S
Er4     V44    9.999   .     S
Er4     Er16    10.012   .     S
Er4     Er12    10.012   .     S
Er5     V46    9.999   .     S
Er5     V32    9.999   1_545     S
Er5     V31    9.999   1_545     S
Er5     V45    9.999   .     S
Er5     Er9    10.012   1_655     S
Er5     Er13    10.012   .     S
Er6     V45    9.999   1_556     S
Er6     V31    9.999   1_546     S
Er6     V32    9.999   1_545     S
Er6     V46    9.999   .     S
Er6     Er10    10.012   1_655     S
Er6     Er14    10.012   .     S
Er7     V48    9.999   .     S
Er7     V30    9.999   .     S
Er7     V29    9.999   .     S
Er7     V47    9.999   .     S
Er7     Er11    10.012   1_655     S
Er7     Er15    10.012   .     S
Er8     V47    9.999   1_556     S
Er8     V29    9.999   1_556     S
Er8     V30    9.999   .     S
Er8     V48    9.999   .     S
Er8     Er12    10.012   1_655     S
Er8     Er16    10.012   .     S
Er9     V20    9.999   1_545     S
Er9     V34    9.999   .     S
Er9     V33    9.999   .     S
Er9     V19    9.999   1_545     S
Er9     Er5    10.012   1_455     S
Er10     V19    9.999   1_546     S
Er10     V33    9.999   1_556     S
Er10     V34    9.999   .     S
Er10     V20    9.999   1_545     S
Er10     Er6    10.012   1_455     S
Er11     V18    9.999   .     S
Er11     V36    9.999   .     S
Er11     V35    9.999   .     S
Er11     V17    9.999   .     S
Er11     Er7    10.012   1_455     S
Er12     V17    9.999   1_556     S
Er12     V35    9.999   1_556     S
Er12     V36    9.999   .     S
Er12     V18    9.999   .     S
Er12     Er8    10.012   1_455     S
Er13     V24    9.999   1_545     S
Er13     V38    9.999   .     S
Er13     V37    9.999   .     S
Er13     V23    9.999   1_545     S
Er14     V23    9.999   1_546     S
Er14     V37    9.999   1_556     S
Er14     V38    9.999   .     S
Er14     V24    9.999   1_545     S
Er15     V22    9.999   .     S
Er15     V40    9.999   .     S
Er15     V39    9.999   .     S
Er15     V21    9.999   .     S
Er16     V21    9.999   1_556     S
Er16     V39    9.999   1_556     S
Er16     V40    9.999   .     S
Er16     V22    9.999   .     S
V17     Er12    9.999   1_554     S
V17     V25    9.993   .     S
V17     V35    9.996   .     S
V17     V33    10.002   .     S
V18     V26    9.993   .     S
V18     V36    9.996   .     S
V18     V34    10.002   .     S
V19     Er10    9.999   1_564     S
V19     V27    9.993   .     S
V19     V33    9.996   1_565     S
V19     Er9    9.999   1_565     S
V19     V35    10.002   .     S
V20     Er9    9.999   1_565     S
V20     V28    9.993   .     S
V20     V34    9.996   1_565     S
V20     Er10    9.999   1_565     S
V20     V36    10.002   .     S
V21     Er16    9.999   1_554     S
V21     V29    9.993   .     S
V21     V39    9.996   .     S
V21     V37    10.002   .     S
V22     V30    9.993   .     S
V22     V40    9.996   .     S
V22     V38    10.002   .     S
V23     Er14    9.999   1_564     S
V23     V31    9.993   .     S
V23     V37    9.996   1_565     S
V23     Er13    9.999   1_565     S
V23     V39    10.002   .     S
V24     Er13    9.999   1_565     S
V24     V32    9.993   .     S
V24     V38    9.996   1_565     S
V24     Er14    9.999   1_565     S
V24     V40    10.002   .     S
V25     Er4    9.999   1_554     S
V25     V43    9.996   .     S
V25     V41    10.002   .     S
V26     V44    9.996   .     S
V26     V42    10.002   .     S
V27     Er2    9.999   1_564     S
V27     Er1    9.999   1_565     S
V27     V41    9.996   1_565     S
V27     V43    10.002   .     S
V28     Er1    9.999   1_565     S
V28     Er2    9.999   1_565     S
V28     V42    9.996   1_565     S
V28     V44    10.002   .     S
V29     Er8    9.999   1_554     S
V29     V47    9.996   .     S
V29     V45    10.002   .     S
V30     V48    9.996   .     S
V30     V46    10.002   .     S
V31     Er6    9.999   1_564     S
V31     Er5    9.999   1_565     S
V31     V45    9.996   1_565     S
V31     V47    10.002   .     S
V32     Er5    9.999   1_565     S
V32     Er6    9.999   1_565     S
V32     V46    9.996   1_565     S
V32     V48    10.002   .     S
V33     Er10    9.999   1_554     S
V33     V41    9.993   .     S
V33     V19    9.996   1_545     S
V34     V42    9.993   .     S
V34     V20    9.996   1_545     S
V35     Er12    9.999   1_554     S
V35     V43    9.993   .     S
V36     V44    9.993   .     S
V37     Er14    9.999   1_554     S
V37     V45    9.993   .     S
V37     V23    9.996   1_545     S
V38     V46    9.993   .     S
V38     V24    9.996   1_545     S
V39     Er16    9.999   1_554     S
V39     V47    9.993   .     S
V40     V48    9.993   .     S
V41     Er2    9.999   1_554     S
V41     V27    9.996   1_545     S
V42     V28    9.996   1_545     S
V43     Er4    9.999   1_554     S
V45     Er6    9.999   1_554     S
V45     V31    9.996   1_545     S
V46     V32    9.996   1_545     S
V47     Er8    9.999   1_554     S
