data_zbf
_audit_creation_date              2019-12-31
_audit_creation_method            'Pymatgen'
_symmetry_space_group_name_H-M    'P1'
_symmetry_Int_Tables_number       1
loop_
_symmetry_equiv_pos_as_xyz
  x,y,z
_cell_length_a                    20.0231
_cell_length_b                    39.9966
_cell_length_c                    34.6424
_cell_angle_alpha                 90.0
_cell_angle_beta                 90.0
_cell_angle_gamma                 90.0
loop_
_atom_site_label
_atom_site_type_symbol
_atom_site_fract_x
_atom_site_fract_y
_atom_site_fract_z
Er1     Er     0.75   0.0   0.25
Er2     Er     0.75   0.0   0.75
Er3     Er     0.75   0.5   0.25
Er4     Er     0.75   0.5   0.75
Er5     Er     0.25   0.0   0.25
Er6     Er     0.25   0.0   0.75
Er7     Er     0.25   0.5   0.25
Er8     Er     0.25   0.5   0.75
V9     V     0.2505   0.375   0.0
V10     V     0.2505   0.375   0.5
V11     V     0.2505   0.875   0.0
V12     V     0.2505   0.875   0.5
V13     V     0.7495   0.375   0.0
V14     V     0.7495   0.375   0.5
V15     V     0.7495   0.875   0.0
V16     V     0.7495   0.875   0.5
V17     V     0.2505   0.125   0.0
V18     V     0.2505   0.125   0.5
V19     V     0.2505   0.625   0.0
V20     V     0.2505   0.625   0.5
V21     V     0.7495   0.125   0.0
V22     V     0.7495   0.125   0.5
V23     V     0.7495   0.625   0.0
V24     V     0.7495   0.625   0.5
loop_
_geom_bond_atom_site_label_1
_geom_bond_atom_site_label_2
_geom_bond_distance
_geom_bond_site_symmetry_2
_ccdc_geom_bond_type
Er1     V22    9.999   .     S
Er1     V16    9.999   1_545     S
Er1     V15    9.999   1_545     S
Er1     V21    9.999   .     S
Er1     Er5    10.012   .     S
Er2     V21    9.999   1_556     S
Er2     V15    9.999   1_546     S
Er2     V16    9.999   1_545     S
Er2     V22    9.999   .     S
Er2     Er6    10.012   .     S
Er3     V24    9.999   .     S
Er3     V14    9.999   .     S
Er3     V13    9.999   .     S
Er3     V23    9.999   .     S
Er3     Er7    10.012   .     S
Er4     V23    9.999   1_556     S
Er4     V13    9.999   1_556     S
Er4     V14    9.999   .     S
Er4     V24    9.999   .     S
Er4     Er8    10.012   .     S
Er5     V12    9.999   1_545     S
Er5     V18    9.999   .     S
Er5     V17    9.999   .     S
Er5     V11    9.999   1_545     S
Er5     Er1    10.012   1_455     S
Er5     Er1    10.012   1_455     S
Er6     V11    9.999   1_546     S
Er6     V17    9.999   1_556     S
Er6     V18    9.999   .     S
Er6     V12    9.999   1_545     S
Er6     Er2    10.012   1_455     S
Er6     Er2    10.012   1_455     S
Er7     V10    9.999   .     S
Er7     V20    9.999   .     S
Er7     V19    9.999   .     S
Er7     V9    9.999   .     S
Er7     Er3    10.012   1_455     S
Er7     Er3    10.012   1_455     S
Er8     V9    9.999   1_556     S
Er8     V19    9.999   1_556     S
Er8     V20    9.999   .     S
Er8     V10    9.999   .     S
Er8     Er4    10.012   1_455     S
Er8     Er4    10.012   1_455     S
V9     Er8    9.999   1_554     S
V9     V13    9.993   .     S
V9     V19    9.996   .     S
V9     V17    10.002   .     S
V10     V14    9.993   .     S
V10     V20    9.996   .     S
V10     V18    10.002   .     S
V11     Er6    9.999   1_564     S
V11     V15    9.993   .     S
V11     V17    9.996   1_565     S
V11     Er5    9.999   1_565     S
V11     V19    10.002   .     S
V12     Er5    9.999   1_565     S
V12     V16    9.993   .     S
V12     V18    9.996   1_565     S
V12     Er6    9.999   1_565     S
V12     V20    10.002   .     S
V13     Er4    9.999   1_554     S
V13     V23    9.996   .     S
V13     V21    10.002   .     S
V14     V24    9.996   .     S
V14     V22    10.002   .     S
V15     Er2    9.999   1_564     S
V15     Er1    9.999   1_565     S
V15     V21    9.996   1_565     S
V15     V23    10.002   .     S
V16     Er1    9.999   1_565     S
V16     Er2    9.999   1_565     S
V16     V22    9.996   1_565     S
V16     V24    10.002   .     S
V17     Er6    9.999   1_554     S
V17     V21    9.993   .     S
V17     V11    9.996   1_545     S
V18     V22    9.993   .     S
V18     V12    9.996   1_545     S
V19     Er8    9.999   1_554     S
V19     V23    9.993   .     S
V20     V24    9.993   .     S
V21     Er2    9.999   1_554     S
V21     V15    9.996   1_545     S
V22     V16    9.996   1_545     S
V23     Er4    9.999   1_554     S
