data_zbi
_audit_creation_date              2019-12-31
_audit_creation_method            'Pymatgen'
_symmetry_space_group_name_H-M    'P1'
_symmetry_Int_Tables_number       1
loop_
_symmetry_equiv_pos_as_xyz
  x,y,z
_cell_length_a                    34.7494
_cell_length_b                    37.0301
_cell_length_c                    67.7589
_cell_angle_alpha                 90.0
_cell_angle_beta                 90.0
_cell_angle_gamma                 90.0
loop_
_atom_site_label
_atom_site_type_symbol
_atom_site_fract_x
_atom_site_fract_y
_atom_site_fract_z
Ce1     Ce     0.25   0.1349   0.3494
Ce2     Ce     0.75   0.1349   0.3494
Ce3     Ce     0.25   0.8651   0.3494
Ce4     Ce     0.75   0.8651   0.3494
Ti5     Ti     0.25   0.0   0.2216
Ti6     Ti     0.75   0.0   0.2216
Ce7     Ce     0.25   0.1349   0.6506
Ce8     Ce     0.75   0.1349   0.6506
Ce9     Ce     0.25   0.8651   0.6506
Ce10     Ce     0.75   0.8651   0.6506
Ti11     Ti     0.25   0.0   0.7784
Ti12     Ti     0.75   0.0   0.7784
V13     V     0.25   0.6344   0.4263
V14     V     0.75   0.6344   0.4263
V15     V     0.25   0.3656   0.4263
V16     V     0.75   0.3656   0.4263
V17     V     0.25   0.6344   0.5737
V18     V     0.75   0.6344   0.5737
V19     V     0.25   0.3656   0.5737
V20     V     0.75   0.3656   0.5737
Er21     Er     0.25   0.0   0.0739
Er22     Er     0.75   0.0   0.0739
Er23     Er     0.25   0.0   0.9261
Er24     Er     0.75   0.0   0.9261
Ce25     Ce     0.0   0.6349   0.8494
Ce26     Ce     0.5   0.6349   0.8494
Ce27     Ce     0.0   0.3651   0.8494
Ce28     Ce     0.5   0.3651   0.8494
Ti29     Ti     0.0   0.5   0.7216
Ti30     Ti     0.5   0.5   0.7216
Ce31     Ce     0.0   0.6349   0.1506
Ce32     Ce     0.5   0.6349   0.1506
Ce33     Ce     0.0   0.3651   0.1506
Ce34     Ce     0.5   0.3651   0.1506
Ti35     Ti     0.0   0.5   0.2784
Ti36     Ti     0.5   0.5   0.2784
V37     V     0.0   0.8656   0.9263
V38     V     0.5   0.8656   0.9263
V39     V     0.0   0.1344   0.9263
V40     V     0.5   0.1344   0.9263
V41     V     0.0   0.8656   0.0737
V42     V     0.5   0.8656   0.0737
V43     V     0.0   0.1344   0.0737
V44     V     0.5   0.1344   0.0737
Er45     Er     0.0   0.5   0.4261
Er46     Er     0.5   0.5   0.4261
Er47     Er     0.0   0.5   0.5739
Er48     Er     0.5   0.5   0.5739
loop_
_geom_bond_atom_site_label_1
_geom_bond_atom_site_label_2
_geom_bond_distance
_geom_bond_site_symmetry_2
_ccdc_geom_bond_type
Ce1     V15    10.008   .     S
Ce1     Ce3    9.989   1_545     S
Ce1     Ti5    9.992   .     S
Ce2     V16    10.008   .     S
Ce2     Ce4    9.989   1_545     S
Ce2     Ti6    9.992   .     S
Ce3     V13    10.008   .     S
Ce3     Ce1    9.989   1_565     S
Ce3     Ti5    9.992   1_565     S
Ce4     V14    10.008   .     S
Ce4     Ce2    9.989   1_565     S
Ce4     Ti6    9.992   1_565     S
Ti5     Er21    10.011   .     S
Ti5     Ce3    9.992   1_545     S
Ti6     Er22    10.011   .     S
Ti6     Ce4    9.992   1_545     S
Ce7     V19    10.008   .     S
Ce7     Ce9    9.989   1_545     S
Ce7     Ti11    9.992   .     S
Ce8     V20    10.008   .     S
Ce8     Ce10    9.989   1_545     S
Ce8     Ti12    9.992   .     S
Ce9     V17    10.008   .     S
Ce9     Ce7    9.989   1_565     S
Ce9     Ti11    9.992   1_565     S
Ce10     V18    10.008   .     S
Ce10     Ce8    9.989   1_565     S
Ce10     Ti12    9.992   1_565     S
Ti11     Er23    10.011   .     S
Ti11     Ce9    9.992   1_545     S
Ti12     Er24    10.011   .     S
Ti12     Ce10    9.992   1_545     S
V13     Er46    10.012   .     S
V13     Er45    10.012   .     S
V13     V17    9.988   .     S
V13     V15    9.955   .     S
V14     Er45    10.012   1_655     S
V14     Er46    10.012   .     S
V14     V18    9.988   .     S
V14     V16    9.955   .     S
V15     Er46    10.012   .     S
V15     Er45    10.012   .     S
V15     V19    9.988   .     S
V16     Er45    10.012   1_655     S
V16     Er46    10.012   .     S
V16     V20    9.988   .     S
V17     Er48    10.012   .     S
V17     Er47    10.012   .     S
V17     V19    9.955   .     S
V18     Er47    10.012   1_655     S
V18     Er48    10.012   .     S
V18     V20    9.955   .     S
V19     Er48    10.012   .     S
V19     Er47    10.012   .     S
V20     Er47    10.012   1_655     S
V20     Er48    10.012   .     S
Er21     V43    10.012   .     S
Er21     V41    10.012   1_545     S
Er21     V42    10.012   1_545     S
Er21     V44    10.012   .     S
Er21     Er23    10.016   1_554     S
Er22     V44    10.012   .     S
Er22     V42    10.012   1_545     S
Er22     V41    10.012   1_645     S
Er22     V43    10.012   1_655     S
Er22     Er24    10.016   1_554     S
Er23     V37    10.012   1_545     S
Er23     V39    10.012   .     S
Er23     V40    10.012   .     S
Er23     V38    10.012   1_545     S
Er23     Er21    10.016   1_556     S
Er24     V38    10.012   1_545     S
Er24     V40    10.012   .     S
Er24     V39    10.012   1_655     S
Er24     V37    10.012   1_645     S
Er24     Er22    10.016   1_556     S
Ce25     V37    10.008   .     S
Ce25     Ce27    9.989   .     S
Ce25     Ti29    9.992   .     S
Ce26     V38    10.008   .     S
Ce26     Ce28    9.989   .     S
Ce26     Ti30    9.992   .     S
Ce27     V39    10.008   .     S
Ce27     Ti29    9.992   .     S
Ce28     V40    10.008   .     S
Ce28     Ti30    9.992   .     S
Ti29     Er47    10.011   .     S
Ti30     Er48    10.011   .     S
Ce31     V41    10.008   .     S
Ce31     Ce33    9.989   .     S
Ce31     Ti35    9.992   .     S
Ce32     V42    10.008   .     S
Ce32     Ce34    9.989   .     S
Ce32     Ti36    9.992   .     S
Ce33     V43    10.008   .     S
Ce33     Ti35    9.992   .     S
Ce34     V44    10.008   .     S
Ce34     Ti36    9.992   .     S
Ti35     Er45    10.011   .     S
Ti36     Er46    10.011   .     S
V37     Er23    10.012   1_565     S
V37     Er24    10.012   1_465     S
V37     V41    9.988   1_556     S
V37     V39    9.955   1_565     S
V38     Er24    10.012   1_565     S
V38     Er23    10.012   1_565     S
V38     V42    9.988   1_556     S
V38     V40    9.955   1_565     S
V39     Er24    10.012   1_455     S
V39     V43    9.988   1_556     S
V39     V37    9.955   1_545     S
V40     V44    9.988   1_556     S
V40     V38    9.955   1_545     S
V41     Er21    10.012   1_565     S
V41     Er22    10.012   1_465     S
V41     V37    9.988   1_554     S
V41     V43    9.955   1_565     S
V42     Er22    10.012   1_565     S
V42     Er21    10.012   1_565     S
V42     V38    9.988   1_554     S
V42     V44    9.955   1_565     S
V43     Er22    10.012   1_455     S
V43     V39    9.988   1_554     S
V43     V41    9.955   1_545     S
V44     V40    9.988   1_554     S
V44     V42    9.955   1_545     S
Er45     V16    10.012   1_455     S
Er45     V14    10.012   1_455     S
Er45     Er47    10.016   .     S
Er46     Er48    10.016   .     S
Er47     V18    10.012   1_455     S
Er47     V20    10.012   1_455     S
