data_zbj
_audit_creation_date              2019-12-31
_audit_creation_method            'Pymatgen'
_symmetry_space_group_name_H-M    'P1'
_symmetry_Int_Tables_number       1
loop_
_symmetry_equiv_pos_as_xyz
  x,y,z
_cell_length_a                    39.213
_cell_length_b                    39.373
_cell_length_c                    39.6928
_cell_angle_alpha                 96.8684
_cell_angle_beta                 94.7042
_cell_angle_gamma                 101.0897
loop_
_atom_site_label
_atom_site_type_symbol
_atom_site_fract_x
_atom_site_fract_y
_atom_site_fract_z
Er1     Er     0.3119   0.0326   0.4007
Er2     Er     0.3119   0.0326   0.9007
Er3     Er     0.3119   0.5326   0.4007
Er4     Er     0.3119   0.5326   0.9007
Er5     Er     0.8119   0.0326   0.4007
Er6     Er     0.8119   0.0326   0.9007
Er7     Er     0.8119   0.5326   0.4007
Er8     Er     0.8119   0.5326   0.9007
Er9     Er     0.1881   0.4674   0.0993
Er10     Er     0.1881   0.4673   0.5993
Er11     Er     0.1881   0.9674   0.0993
Er12     Er     0.1881   0.9673   0.5993
Er13     Er     0.6881   0.4674   0.0993
Er14     Er     0.6881   0.4673   0.5993
Er15     Er     0.6881   0.9674   0.0993
Er16     Er     0.6881   0.9673   0.5993
Ti17     Ti     0.4259   0.4164   0.0742
Ti18     Ti     0.4259   0.4164   0.5742
Ti19     Ti     0.4259   0.9164   0.0742
Ti20     Ti     0.4259   0.9164   0.5742
Ti21     Ti     0.9259   0.4164   0.0742
Ti22     Ti     0.9259   0.4164   0.5742
Ti23     Ti     0.9259   0.9164   0.0742
Ti24     Ti     0.9259   0.9164   0.5742
Ti25     Ti     0.0741   0.0836   0.4258
Ti26     Ti     0.0741   0.0836   0.9258
Ti27     Ti     0.0741   0.5836   0.4258
Ti28     Ti     0.0741   0.5836   0.9258
Ti29     Ti     0.5741   0.0836   0.4258
Ti30     Ti     0.5741   0.0836   0.9258
Ti31     Ti     0.5741   0.5836   0.4258
Ti32     Ti     0.5741   0.5836   0.9258
V33     V     0.2333   0.229   0.1209
V34     V     0.2333   0.229   0.6209
V35     V     0.2333   0.729   0.1209
V36     V     0.2333   0.729   0.6209
V37     V     0.7333   0.229   0.1209
V38     V     0.7333   0.229   0.6209
V39     V     0.7333   0.729   0.1209
V40     V     0.7333   0.729   0.6209
V41     V     0.2667   0.271   0.3791
V42     V     0.2667   0.271   0.8791
V43     V     0.2667   0.771   0.3791
V44     V     0.2667   0.771   0.8791
V45     V     0.7667   0.271   0.3791
V46     V     0.7667   0.271   0.8791
V47     V     0.7667   0.771   0.3791
V48     V     0.7667   0.771   0.8791
loop_
_geom_bond_atom_site_label_1
_geom_bond_atom_site_label_2
_geom_bond_distance
_geom_bond_site_symmetry_2
_ccdc_geom_bond_type
Er1     V43    10.032   1_545     S
Er1     Ti29    10.033   .     S
Er1     Ti25    10.009   .     S
Er1     V41    10.0   .     S
Er1     Er12    9.934   1_545     S
Er1     Ti20    9.937   1_545     S
Er2     V44    10.032   1_545     S
Er2     Ti30    10.033   .     S
Er2     Ti26    10.009   .     S
Er2     V42    10.0   .     S
Er2     Er11    9.934   1_546     S
Er2     Ti19    9.937   1_546     S
Er3     V41    10.032   .     S
Er3     Ti31    10.033   .     S
Er3     Ti27    10.009   .     S
Er3     V43    10.0   .     S
Er3     Er10    9.934   .     S
Er3     Ti18    9.937   .     S
Er4     V42    10.032   .     S
Er4     Ti32    10.033   .     S
Er4     Ti28    10.009   .     S
Er4     V44    10.0   .     S
Er4     Er9    9.934   1_556     S
Er4     Ti17    9.937   1_556     S
Er5     V47    10.032   1_545     S
Er5     Ti25    10.033   1_655     S
Er5     Ti29    10.009   .     S
Er5     V45    10.0   .     S
Er5     Er16    9.934   1_545     S
Er5     Ti24    9.937   1_545     S
Er6     V48    10.032   1_545     S
Er6     Ti26    10.033   1_655     S
Er6     Ti30    10.009   .     S
Er6     V46    10.0   .     S
Er6     Er15    9.934   1_546     S
Er6     Ti23    9.937   1_546     S
Er7     V45    10.032   .     S
Er7     Ti27    10.033   1_655     S
Er7     Ti31    10.009   .     S
Er7     V47    10.0   .     S
Er7     Er14    9.934   .     S
Er7     Ti22    9.937   .     S
Er8     V46    10.032   .     S
Er8     Ti28    10.033   1_655     S
Er8     Ti32    10.009   .     S
Er8     V48    10.0   .     S
Er8     Er13    9.934   1_556     S
Er8     Ti21    9.937   1_556     S
Er9     V35    10.032   .     S
Er9     Ti21    10.033   1_455     S
Er9     Ti17    10.009   .     S
Er9     V33    10.0   .     S
Er9     Ti28    9.937   1_554     S
Er9     Er4    9.934   1_554     S
Er10     V36    10.032   .     S
Er10     Ti22    10.033   1_455     S
Er10     Ti18    10.009   .     S
Er10     V34    10.0   .     S
Er10     Ti27    9.937   .     S
Er11     V33    10.032   1_565     S
Er11     Ti23    10.033   1_455     S
Er11     Ti19    10.009   .     S
Er11     V35    10.0   .     S
Er11     Ti26    9.937   1_564     S
Er11     Er2    9.934   1_564     S
Er12     V34    10.032   1_565     S
Er12     Ti24    10.033   1_455     S
Er12     Ti20    10.009   .     S
Er12     V36    10.0   .     S
Er12     Ti25    9.937   1_565     S
Er12     Er1    9.934   1_565     S
Er13     V39    10.032   .     S
Er13     Ti17    10.033   .     S
Er13     Ti21    10.009   .     S
Er13     V37    10.0   .     S
Er13     Ti32    9.937   1_554     S
Er13     Er8    9.934   1_554     S
Er14     V40    10.032   .     S
Er14     Ti18    10.033   .     S
Er14     Ti22    10.009   .     S
Er14     V38    10.0   .     S
Er14     Ti31    9.937   .     S
Er15     V37    10.032   1_565     S
Er15     Ti19    10.033   .     S
Er15     Ti23    10.009   .     S
Er15     V39    10.0   .     S
Er15     Ti30    9.937   1_564     S
Er15     Er6    9.934   1_564     S
Er16     V38    10.032   1_565     S
Er16     Ti20    10.033   .     S
Er16     Ti24    10.009   .     S
Er16     V40    10.0   .     S
Er16     Ti29    9.937   1_565     S
Er16     Er5    9.934   1_565     S
Ti17     Er4    9.937   1_554     S
Ti17     V33    9.951   .     S
Ti17     V42    9.972   1_554     S
Ti18     V34    9.951   .     S
Ti18     V41    9.972   .     S
Ti19     Er2    9.937   1_564     S
Ti19     V35    9.951   .     S
Ti19     V44    9.972   1_554     S
Ti20     Er1    9.937   1_565     S
Ti20     V36    9.951   .     S
Ti20     V43    9.972   .     S
Ti21     Er9    10.033   1_655     S
Ti21     Er8    9.937   1_554     S
Ti21     V37    9.951   .     S
Ti21     V46    9.972   1_554     S
Ti22     Er10    10.033   1_655     S
Ti22     V38    9.951   .     S
Ti22     V45    9.972   .     S
Ti23     Er11    10.033   1_655     S
Ti23     Er6    9.937   1_564     S
Ti23     V39    9.951   .     S
Ti23     V48    9.972   1_554     S
Ti24     Er12    10.033   1_655     S
Ti24     Er5    9.937   1_565     S
Ti24     V40    9.951   .     S
Ti24     V47    9.972   .     S
Ti25     Er5    10.033   1_455     S
Ti25     Er12    9.937   1_545     S
Ti25     V41    9.951   .     S
Ti25     V34    9.972   .     S
Ti26     Er6    10.033   1_455     S
Ti26     Er11    9.937   1_546     S
Ti26     V42    9.951   .     S
Ti26     V33    9.972   1_556     S
Ti27     Er7    10.033   1_455     S
Ti27     V43    9.951   .     S
Ti27     V36    9.972   .     S
Ti28     Er8    10.033   1_455     S
Ti28     Er9    9.937   1_556     S
Ti28     V44    9.951   .     S
Ti28     V35    9.972   1_556     S
Ti29     Er16    9.937   1_545     S
Ti29     V45    9.951   .     S
Ti29     V38    9.972   .     S
Ti30     Er15    9.937   1_546     S
Ti30     V46    9.951   .     S
Ti30     V37    9.972   1_556     S
Ti31     V47    9.951   .     S
Ti31     V40    9.972   .     S
Ti32     Er13    9.937   1_556     S
Ti32     V48    9.951   .     S
Ti32     V39    9.972   1_556     S
V33     V41    10.121   .     S
V33     Er11    10.032   1_545     S
V33     V42    10.076   1_554     S
V33     Ti26    9.972   1_554     S
V34     V42    10.121   .     S
V34     Er12    10.032   1_545     S
V34     V41    10.076   .     S
V35     V43    10.121   .     S
V35     V44    10.076   1_554     S
V35     Ti28    9.972   1_554     S
V36     V44    10.121   .     S
V36     V43    10.076   .     S
V37     V45    10.121   .     S
V37     Er15    10.032   1_545     S
V37     V46    10.076   1_554     S
V37     Ti30    9.972   1_554     S
V38     V46    10.121   .     S
V38     Er16    10.032   1_545     S
V38     V45    10.076   .     S
V39     V47    10.121   .     S
V39     V48    10.076   1_554     S
V39     Ti32    9.972   1_554     S
V40     V48    10.121   .     S
V40     V47    10.076   .     S
V42     V33    10.076   1_556     S
V42     Ti17    9.972   1_556     S
V43     Er1    10.032   1_565     S
V44     Er2    10.032   1_565     S
V44     V35    10.076   1_556     S
V44     Ti19    9.972   1_556     S
V46     V37    10.076   1_556     S
V46     Ti21    9.972   1_556     S
V47     Er5    10.032   1_565     S
V48     Er6    10.032   1_565     S
V48     V39    10.076   1_556     S
V48     Ti23    9.972   1_556     S
