data_zbk
_audit_creation_date              2019-12-31
_audit_creation_method            'Pymatgen'
_symmetry_space_group_name_H-M    'P1'
_symmetry_Int_Tables_number       1
loop_
_symmetry_equiv_pos_as_xyz
  x,y,z
_cell_length_a                    32.214
_cell_length_b                    29.9055
_cell_length_c                    51.2629
_cell_angle_alpha                 90.0
_cell_angle_beta                 90.3642
_cell_angle_gamma                 90.0
loop_
_atom_site_label
_atom_site_type_symbol
_atom_site_fract_x
_atom_site_fract_y
_atom_site_fract_z
Er1     Er     0.2208   0.9701   0.4059
Er2     Er     0.7208   0.9701   0.4059
Er3     Er     0.2792   0.0299   0.5941
Er4     Er     0.7792   0.0299   0.5941
V5     V     0.0287   0.8524   0.5419
V6     V     0.5287   0.8524   0.5419
V7     V     0.4713   0.1476   0.4581
V8     V     0.9713   0.1476   0.4581
Ti9     Ti     0.0026   0.8745   0.3476
Ti10     Ti     0.5026   0.8745   0.3476
Ti11     Ti     0.4974   0.1255   0.6524
Ti12     Ti     0.9974   0.1255   0.6524
Er13     Er     0.0292   0.5299   0.5941
Er14     Er     0.5292   0.5299   0.5941
Er15     Er     0.4708   0.4701   0.4059
Er16     Er     0.9708   0.4701   0.4059
V17     V     0.2213   0.6476   0.4581
V18     V     0.7213   0.6476   0.4581
V19     V     0.2787   0.3524   0.5419
V20     V     0.7787   0.3524   0.5419
Ti21     Ti     0.2526   0.3745   0.3476
Ti22     Ti     0.7526   0.3745   0.3476
Ti23     Ti     0.2474   0.6255   0.6524
Ti24     Ti     0.7474   0.6255   0.6524
Er25     Er     0.0292   0.4701   0.0941
Er26     Er     0.5292   0.4701   0.0941
Er27     Er     0.4708   0.5299   0.9059
Er28     Er     0.9708   0.5299   0.9059
V29     V     0.2213   0.3524   0.9581
V30     V     0.7213   0.3524   0.9581
V31     V     0.2787   0.6476   0.0419
V32     V     0.7787   0.6476   0.0419
Ti33     Ti     0.2474   0.3745   0.1524
Ti34     Ti     0.7474   0.3745   0.1524
Ti35     Ti     0.2526   0.6255   0.8476
Ti36     Ti     0.7526   0.6255   0.8476
Er37     Er     0.2792   0.9701   0.0941
Er38     Er     0.7792   0.9701   0.0941
Er39     Er     0.2208   0.0299   0.9059
Er40     Er     0.7208   0.0299   0.9059
V41     V     0.4713   0.8524   0.9581
V42     V     0.9713   0.8524   0.9581
V43     V     0.0287   0.1476   0.0419
V44     V     0.5287   0.1476   0.0419
Ti45     Ti     0.4974   0.8745   0.1524
Ti46     Ti     0.9974   0.8745   0.1524
Ti47     Ti     0.0026   0.1255   0.8476
Ti48     Ti     0.5026   0.1255   0.8476
loop_
_geom_bond_atom_site_label_1
_geom_bond_atom_site_label_2
_geom_bond_distance
_geom_bond_site_symmetry_2
_ccdc_geom_bond_type
Er1     Er3    9.976   1_565     S
Er1     V8    10.009   1_465     S
Er1     V5    9.991   .     S
Er1     V17    10.009   .     S
Er1     V7    10.01   1_565     S
Er1     Ti10    9.992   .     S
Er2     Er4    9.976   1_565     S
Er2     V7    10.009   1_565     S
Er2     V6    9.991   .     S
Er2     V18    10.009   .     S
Er2     V8    10.01   1_565     S
Er2     Ti9    9.992   1_655     S
Er3     Er1    9.976   1_545     S
Er3     V5    10.01   1_545     S
Er3     V6    10.009   1_545     S
Er3     V7    9.991   .     S
Er3     V19    10.009   .     S
Er3     Ti12    9.992   1_455     S
Er4     Er2    9.976   1_545     S
Er4     V6    10.01   1_545     S
Er4     V5    10.009   1_645     S
Er4     V8    9.991   .     S
Er4     V20    10.009   .     S
Er4     Ti11    9.992   .     S
V5     Ti9    10.01   .     S
V5     Er3    10.01   1_565     S
V5     Ti12    9.992   1_465     S
V5     Er4    10.009   1_465     S
V5     V8    9.986   1_465     S
V5     Er13    10.009   .     S
V6     Ti10    10.01   .     S
V6     Er4    10.01   1_565     S
V6     Ti11    9.992   1_565     S
V6     Er3    10.009   1_565     S
V6     V7    9.986   1_565     S
V6     Er14    10.009   .     S
V7     Ti10    9.992   1_545     S
V7     Er2    10.009   1_545     S
V7     Ti11    10.01   .     S
V7     Er1    10.01   1_545     S
V7     V6    9.986   1_545     S
V7     Er15    10.009   .     S
V8     Ti9    9.992   1_645     S
V8     Er1    10.009   1_645     S
V8     Ti12    10.01   .     S
V8     Er2    10.01   1_545     S
V8     V5    9.986   1_645     S
V8     Er16    10.009   .     S
Ti9     V8    9.992   1_465     S
Ti9     Er2    9.992   1_455     S
Ti9     Ti46    10.011   1_455     S
Ti10     V7    9.992   1_565     S
Ti10     Ti45    10.011   .     S
Ti11     V6    9.992   1_545     S
Ti11     Ti48    10.011   .     S
Ti12     V5    9.992   1_645     S
Ti12     Er3    9.992   1_655     S
Ti12     Ti47    10.011   1_655     S
Er13     V19    10.009   .     S
Er13     V17    9.991   .     S
Er13     Er16    9.976   1_455     S
Er13     V20    10.01   1_455     S
Er13     Ti24    9.992   1_455     S
Er14     V20    10.009   .     S
Er14     V18    9.991   .     S
Er14     Er15    9.976   .     S
Er14     V19    10.01   .     S
Er14     Ti23    9.992   .     S
Er15     V18    10.01   .     S
Er15     V17    10.009   .     S
Er15     V19    9.991   .     S
Er15     Ti22    9.992   .     S
Er16     V17    10.01   1_655     S
Er16     Er13    9.976   1_655     S
Er16     V18    10.009   .     S
Er16     V20    9.991   .     S
Er16     Ti21    9.992   1_655     S
V17     Ti23    10.01   .     S
V17     Er16    10.01   1_455     S
V17     V19    9.986   .     S
V17     Ti21    9.992   .     S
V18     Ti24    10.01   .     S
V18     V20    9.986   .     S
V18     Ti22    9.992   .     S
V19     Ti23    9.992   .     S
V19     Ti21    10.01   .     S
V20     Ti24    9.992   .     S
V20     Ti22    10.01   .     S
V20     Er13    10.01   1_655     S
Ti21     Er16    9.992   1_455     S
Ti21     Ti33    10.011   .     S
Ti22     Ti34    10.011   .     S
Ti23     Ti35    10.011   .     S
Ti24     Er13    9.992   1_655     S
Ti24     Ti36    10.011   .     S
Er25     Er28    9.976   1_454     S
Er25     V31    10.009   .     S
Er25     V29    9.991   1_554     S
Er25     V43    10.009   .     S
Er25     V32    10.01   1_455     S
Er25     Ti34    9.992   1_455     S
Er26     Er27    9.976   1_554     S
Er26     V32    10.009   .     S
Er26     V30    9.991   1_554     S
Er26     V44    10.009   .     S
Er26     V31    10.01   .     S
Er26     Ti33    9.992   .     S
Er27     Er26    9.976   1_556     S
Er27     V30    10.01   .     S
Er27     V29    10.009   .     S
Er27     V31    9.991   1_556     S
Er27     V41    10.009   .     S
Er27     Ti36    9.992   .     S
Er28     Er25    9.976   1_656     S
Er28     V29    10.01   1_655     S
Er28     V30    10.009   .     S
Er28     V32    9.991   1_556     S
Er28     V42    10.009   .     S
Er28     Ti35    9.992   1_655     S
V29     Ti33    10.01   1_556     S
V29     Er25    9.991   1_556     S
V29     Er28    10.01   1_455     S
V29     Ti35    9.992   .     S
V29     V31    9.986   1_556     S
V29     Er39    10.009   .     S
V30     Ti34    10.01   1_556     S
V30     Er26    9.991   1_556     S
V30     Ti36    9.992   .     S
V30     V32    9.986   1_556     S
V30     Er40    10.009   .     S
V31     Ti33    9.992   .     S
V31     Ti35    10.01   1_554     S
V31     Er27    9.991   1_554     S
V31     V29    9.986   1_554     S
V31     Er37    10.009   .     S
V32     Ti34    9.992   .     S
V32     Ti36    10.01   1_554     S
V32     Er28    9.991   1_554     S
V32     Er25    10.01   1_655     S
V32     V30    9.986   1_554     S
V32     Er38    10.009   .     S
Ti33     V29    10.01   1_554     S
Ti34     V30    10.01   1_554     S
Ti34     Er25    9.992   1_655     S
Ti35     V31    10.01   1_556     S
Ti35     Er28    9.992   1_455     S
Ti36     V32    10.01   1_556     S
Er37     Er39    9.976   1_564     S
Er37     V43    10.01   1_565     S
Er37     V44    10.009   1_565     S
Er37     V41    9.991   1_554     S
Er37     Ti46    9.992   1_455     S
Er38     Er40    9.976   1_564     S
Er38     V44    10.01   1_565     S
Er38     V43    10.009   1_665     S
Er38     V42    9.991   1_554     S
Er38     Ti45    9.992   .     S
Er39     Er37    9.976   1_546     S
Er39     V42    10.009   1_445     S
Er39     V43    9.991   1_556     S
Er39     V41    10.01   1_545     S
Er39     Ti48    9.992   .     S
Er40     Er38    9.976   1_546     S
Er40     V41    10.009   1_545     S
Er40     V44    9.991   1_556     S
Er40     V42    10.01   1_545     S
Er40     Ti47    9.992   1_655     S
V41     Ti48    9.992   1_565     S
V41     Er40    10.009   1_565     S
V41     Ti45    10.01   1_556     S
V41     Er37    9.991   1_556     S
V41     Er39    10.01   1_565     S
V41     V44    9.986   1_566     S
V42     Ti47    9.992   1_665     S
V42     Er39    10.009   1_665     S
V42     Ti46    10.01   1_556     S
V42     Er38    9.991   1_556     S
V42     Er40    10.01   1_565     S
V42     V43    9.986   1_666     S
V43     Ti47    10.01   1_554     S
V43     Er39    9.991   1_554     S
V43     Er37    10.01   1_545     S
V43     Ti46    9.992   1_445     S
V43     Er38    10.009   1_445     S
V43     V42    9.986   1_444     S
V44     Ti48    10.01   1_554     S
V44     Er40    9.991   1_554     S
V44     Er38    10.01   1_545     S
V44     Ti45    9.992   1_545     S
V44     Er37    10.009   1_545     S
V44     V41    9.986   1_544     S
Ti45     V44    9.992   1_565     S
Ti45     V41    10.01   1_554     S
Ti46     V43    9.992   1_665     S
Ti46     V42    10.01   1_554     S
Ti46     Er37    9.992   1_655     S
Ti46     Ti9    10.011   1_655     S
Ti47     V42    9.992   1_445     S
Ti47     V43    10.01   1_556     S
Ti47     Er40    9.992   1_455     S
Ti47     Ti12    10.011   1_455     S
Ti48     V41    9.992   1_545     S
Ti48     V44    10.01   1_556     S
