data_zbl
_audit_creation_date              2019-12-31
_audit_creation_method            'Pymatgen'
_symmetry_space_group_name_H-M    'P1'
_symmetry_Int_Tables_number       1
loop_
_symmetry_equiv_pos_as_xyz
  x,y,z
_cell_length_a                    40.0001
_cell_length_b                    40.0006
_cell_length_c                    48.2927
_cell_angle_alpha                 90.0
_cell_angle_beta                 90.0
_cell_angle_gamma                 90.0
loop_
_atom_site_label
_atom_site_type_symbol
_atom_site_fract_x
_atom_site_fract_y
_atom_site_fract_z
Er1     Er     0.5   0.25   0.1036
Er2     Er     0.5   0.75   0.1036
V3     V     0.625   0.375   0.25
V4     V     0.625   0.875   0.25
V5     V     0.375   0.375   0.25
V6     V     0.375   0.875   0.25
V7     V     0.375   0.125   0.25
V8     V     0.375   0.625   0.25
V9     V     0.625   0.125   0.25
V10     V     0.625   0.625   0.25
Er11     Er     0.5   0.0   0.3964
Er12     Er     0.5   0.5   0.3964
Er13     Er     0.0   0.25   0.3964
Er14     Er     0.0   0.75   0.3964
V15     V     0.875   0.375   0.25
V16     V     0.875   0.875   0.25
V17     V     0.125   0.375   0.25
V18     V     0.125   0.875   0.25
V19     V     0.875   0.125   0.25
V20     V     0.875   0.625   0.25
V21     V     0.125   0.125   0.25
V22     V     0.125   0.625   0.25
Er23     Er     0.0   0.0   0.1036
Er24     Er     0.0   0.5   0.1036
Er25     Er     0.5   0.25   0.8964
Er26     Er     0.5   0.75   0.8964
V27     V     0.625   0.125   0.75
V28     V     0.625   0.625   0.75
V29     V     0.375   0.125   0.75
V30     V     0.375   0.625   0.75
V31     V     0.375   0.375   0.75
V32     V     0.375   0.875   0.75
V33     V     0.625   0.375   0.75
V34     V     0.625   0.875   0.75
Er35     Er     0.5   0.0   0.6036
Er36     Er     0.5   0.5   0.6036
Er37     Er     0.0   0.25   0.6036
Er38     Er     0.0   0.75   0.6036
V39     V     0.875   0.375   0.75
V40     V     0.875   0.875   0.75
V41     V     0.125   0.375   0.75
V42     V     0.125   0.875   0.75
V43     V     0.875   0.125   0.75
V44     V     0.875   0.625   0.75
V45     V     0.125   0.125   0.75
V46     V     0.125   0.625   0.75
Er47     Er     0.0   0.0   0.8964
Er48     Er     0.0   0.5   0.8964
loop_
_geom_bond_atom_site_label_1
_geom_bond_atom_site_label_2
_geom_bond_distance
_geom_bond_site_symmetry_2
_ccdc_geom_bond_type
Er1     V5    9.999   .     S
Er1     V3    9.999   .     S
Er1     V9    9.999   .     S
Er1     V7    9.999   .     S
Er1     Er25    10.005   1_554     S
Er2     V6    9.999   .     S
Er2     V4    9.999   .     S
Er2     V10    9.999   .     S
Er2     V8    9.999   .     S
Er2     Er26    10.005   1_554     S
V3     V5    9.998   .     S
V3     Er12    9.999   .     S
V3     V10    10.0   .     S
V3     V9    10.0   .     S
V3     V15    10.002   .     S
V4     V6    9.998   .     S
V4     Er11    9.999   1_565     S
V4     V9    10.0   1_565     S
V4     V10    10.0   .     S
V4     V16    10.002   .     S
V5     Er12    9.999   .     S
V5     V8    10.0   .     S
V5     V7    10.0   .     S
V5     V17    10.002   .     S
V6     Er11    9.999   1_565     S
V6     V7    10.0   1_565     S
V6     V8    10.0   .     S
V6     V18    10.002   .     S
V7     V9    9.998   .     S
V7     Er11    9.999   .     S
V7     V6    10.0   1_545     S
V7     V21    10.002   .     S
V8     V10    9.998   .     S
V8     Er12    9.999   .     S
V8     V22    10.002   .     S
V9     Er11    9.999   .     S
V9     V4    10.0   1_545     S
V9     V19    10.002   .     S
V10     Er12    9.999   .     S
V10     V20    10.002   .     S
Er11     V6    9.999   1_545     S
Er11     V4    9.999   1_545     S
Er11     Er35    10.005   .     S
Er12     Er36    10.005   .     S
Er13     V17    9.999   .     S
Er13     V15    9.999   1_455     S
Er13     V19    9.999   1_455     S
Er13     V21    9.999   .     S
Er13     Er37    10.005   .     S
Er14     V18    9.999   .     S
Er14     V16    9.999   1_455     S
Er14     V20    9.999   1_455     S
Er14     V22    9.999   .     S
Er14     Er38    10.005   .     S
V15     Er13    9.999   1_655     S
V15     V17    9.998   1_655     S
V15     Er24    9.999   1_655     S
V15     V20    10.0   .     S
V15     V19    10.0   .     S
V16     Er14    9.999   1_655     S
V16     V18    9.998   1_655     S
V16     Er23    9.999   1_665     S
V16     V19    10.0   1_565     S
V16     V20    10.0   .     S
V17     V15    9.998   1_455     S
V17     Er24    9.999   .     S
V17     V22    10.0   .     S
V17     V21    10.0   .     S
V18     V16    9.998   1_455     S
V18     Er23    9.999   1_565     S
V18     V21    10.0   1_565     S
V18     V22    10.0   .     S
V19     Er13    9.999   1_655     S
V19     V21    9.998   1_655     S
V19     Er23    9.999   1_655     S
V19     V16    10.0   1_545     S
V20     Er14    9.999   1_655     S
V20     V22    9.998   1_655     S
V20     Er24    9.999   1_655     S
V21     V19    9.998   1_455     S
V21     Er23    9.999   .     S
V21     V18    10.0   1_545     S
V22     V20    9.998   1_455     S
V22     Er24    9.999   .     S
Er23     V18    9.999   1_545     S
Er23     V16    9.999   1_445     S
Er23     V19    9.999   1_455     S
Er23     Er47    10.005   1_554     S
Er24     V15    9.999   1_455     S
Er24     V20    9.999   1_455     S
Er24     Er48    10.005   1_554     S
Er25     V33    9.999   .     S
Er25     V31    9.999   .     S
Er25     V29    9.999   .     S
Er25     V27    9.999   .     S
Er25     Er1    10.005   1_556     S
Er26     V34    9.999   .     S
Er26     V32    9.999   .     S
Er26     V30    9.999   .     S
Er26     V28    9.999   .     S
Er26     Er2    10.005   1_556     S
V27     V29    9.998   .     S
V27     Er35    9.999   .     S
V27     V34    10.0   1_545     S
V27     V33    10.0   .     S
V27     V43    10.002   .     S
V28     V30    9.998   .     S
V28     Er36    9.999   .     S
V28     V33    10.0   .     S
V28     V34    10.0   .     S
V28     V44    10.002   .     S
V29     Er35    9.999   .     S
V29     V32    10.0   1_545     S
V29     V31    10.0   .     S
V29     V45    10.002   .     S
V30     Er36    9.999   .     S
V30     V31    10.0   .     S
V30     V32    10.0   .     S
V30     V46    10.002   .     S
V31     V33    9.998   .     S
V31     Er36    9.999   .     S
V31     V41    10.002   .     S
V32     V34    9.998   .     S
V32     Er35    9.999   1_565     S
V32     V29    10.0   1_565     S
V32     V42    10.002   .     S
V33     Er36    9.999   .     S
V33     V39    10.002   .     S
V34     Er35    9.999   1_565     S
V34     V27    10.0   1_565     S
V34     V40    10.002   .     S
Er35     V34    9.999   1_545     S
Er35     V32    9.999   1_545     S
Er37     V45    9.999   .     S
Er37     V43    9.999   1_455     S
Er37     V39    9.999   1_455     S
Er37     V41    9.999   .     S
Er38     V46    9.999   .     S
Er38     V44    9.999   1_455     S
Er38     V40    9.999   1_455     S
Er38     V42    9.999   .     S
V39     Er37    9.999   1_655     S
V39     V41    9.998   1_655     S
V39     Er48    9.999   1_655     S
V39     V44    10.0   .     S
V39     V43    10.0   .     S
V40     Er38    9.999   1_655     S
V40     V42    9.998   1_655     S
V40     Er47    9.999   1_665     S
V40     V43    10.0   1_565     S
V40     V44    10.0   .     S
V41     V39    9.998   1_455     S
V41     Er48    9.999   .     S
V41     V46    10.0   .     S
V41     V45    10.0   .     S
V42     V40    9.998   1_455     S
V42     Er47    9.999   1_565     S
V42     V45    10.0   1_565     S
V42     V46    10.0   .     S
V43     Er37    9.999   1_655     S
V43     V45    9.998   1_655     S
V43     Er47    9.999   1_655     S
V43     V40    10.0   1_545     S
V44     Er38    9.999   1_655     S
V44     V46    9.998   1_655     S
V44     Er48    9.999   1_655     S
V45     V43    9.998   1_455     S
V45     Er47    9.999   .     S
V45     V42    10.0   1_545     S
V46     V44    9.998   1_455     S
V46     Er48    9.999   .     S
Er47     V40    9.999   1_445     S
Er47     V42    9.999   1_545     S
Er47     V43    9.999   1_455     S
Er47     Er23    10.005   1_556     S
Er48     V39    9.999   1_455     S
Er48     V44    9.999   1_455     S
Er48     Er24    10.005   1_556     S
