data_zbm
_audit_creation_date              2019-12-31
_audit_creation_method            'Pymatgen'
_symmetry_space_group_name_H-M    'P1'
_symmetry_Int_Tables_number       1
loop_
_symmetry_equiv_pos_as_xyz
  x,y,z
_cell_length_a                    38.6314
_cell_length_b                    29.7114
_cell_length_c                    21.2502
_cell_angle_alpha                 90.0
_cell_angle_beta                 96.2383
_cell_angle_gamma                 90.0
loop_
_atom_site_label
_atom_site_type_symbol
_atom_site_fract_x
_atom_site_fract_y
_atom_site_fract_z
Ti1     Ti     0.0535   0.649   0.5631
Ti2     Ti     0.5535   0.649   0.5631
V3     V     0.3954   0.4984   0.8395
V4     V     0.8954   0.4984   0.8395
Er5     Er     0.2038   0.3505   0.5605
Er6     Er     0.7038   0.3505   0.5605
Ti7     Ti     0.4465   0.351   0.4369
Ti8     Ti     0.9465   0.351   0.4369
V9     V     0.1046   0.5016   0.1605
V10     V     0.6046   0.5016   0.1605
Er11     Er     0.2962   0.6495   0.4395
Er12     Er     0.7962   0.6495   0.4395
Ti13     Ti     0.1965   0.149   0.9369
Ti14     Ti     0.6965   0.149   0.9369
V15     V     0.3546   0.9984   0.6605
V16     V     0.8546   0.9984   0.6605
Er17     Er     0.0462   0.8506   0.9395
Er18     Er     0.5462   0.8506   0.9395
Ti19     Ti     0.3035   0.851   0.0631
Ti20     Ti     0.8035   0.851   0.0631
V21     V     0.1454   0.0016   0.3395
V22     V     0.6454   0.0016   0.3395
Er23     Er     0.4538   0.1494   0.0605
Er24     Er     0.9538   0.1494   0.0605
loop_
_geom_bond_atom_site_label_1
_geom_bond_atom_site_label_2
_geom_bond_distance
_geom_bond_site_symmetry_2
_ccdc_geom_bond_type
Ti1     V9    9.997   .     S
Ti1     V4    9.981   1_455     S
Ti1     Er12    10.002   1_455     S
Ti1     Ti8    10.014   1_455     S
Ti1     Er11    10.007   .     S
Ti1     Er17    10.021   .     S
Ti2     V10    9.997   .     S
Ti2     V3    9.981   .     S
Ti2     Er11    10.002   .     S
Ti2     Ti7    10.014   .     S
Ti2     Er12    10.007   .     S
Ti2     Er18    10.021   .     S
V3     Er11    9.999   .     S
V3     Ti7    9.997   .     S
V3     Er5    9.985   .     S
V3     V10    9.994   1_556     S
V4     Er12    9.999   .     S
V4     Ti8    9.997   .     S
V4     Ti1    9.981   1_655     S
V4     Er6    9.985   .     S
V4     V9    9.994   1_656     S
Er5     V9    9.999   .     S
Er5     Ti8    10.002   1_455     S
Er5     Er11    10.01   .     S
Er5     Ti7    10.007   .     S
Er5     Ti13    10.021   .     S
Er6     V10    9.999   .     S
Er6     Ti7    10.002   .     S
Er6     Er12    10.01   .     S
Er6     Ti8    10.007   .     S
Er6     Ti14    10.021   .     S
Ti7     V10    9.981   .     S
Ti7     Er23    10.021   .     S
Ti8     V9    9.981   1_655     S
Ti8     Er5    10.002   1_655     S
Ti8     Ti1    10.014   1_655     S
Ti8     Er24    10.021   .     S
V9     Ti8    9.981   1_455     S
V9     Er11    9.985   .     S
V9     V4    9.994   1_454     S
V10     Er12    9.985   .     S
V10     V3    9.994   1_554     S
Er11     Ti19    10.021   .     S
Er12     Ti1    10.002   1_655     S
Er12     Ti20    10.021   .     S
Ti13     V21    9.997   1_556     S
Ti13     V15    9.981   1_545     S
Ti13     Er23    10.002   1_556     S
Ti13     Ti19    10.014   1_546     S
Ti13     Er24    10.007   1_456     S
Ti14     V22    9.997   1_556     S
Ti14     V16    9.981   1_545     S
Ti14     Er24    10.002   1_556     S
Ti14     Ti20    10.014   1_546     S
Ti14     Er23    10.007   1_556     S
V15     Er23    9.999   1_566     S
V15     Ti19    9.997   1_556     S
V15     Ti13    9.981   1_565     S
V15     Er18    9.985   .     S
V15     V21    9.994   1_565     S
V16     Er24    9.999   1_566     S
V16     Ti20    9.997   1_556     S
V16     Ti14    9.981   1_565     S
V16     Er17    9.985   1_655     S
V16     V22    9.994   1_565     S
Er17     V21    9.999   1_566     S
Er17     V16    9.985   1_455     S
Er17     Ti19    10.002   1_556     S
Er17     Er24    10.01   1_466     S
Er17     Ti20    10.007   1_456     S
Er18     V22    9.999   1_566     S
Er18     Ti20    10.002   1_556     S
Er18     Er23    10.01   1_566     S
Er18     Ti19    10.007   1_556     S
Ti19     V15    9.997   1_554     S
Ti19     V21    9.981   1_565     S
Ti19     Er17    10.002   1_554     S
Ti19     Ti13    10.014   1_564     S
Ti19     Er18    10.007   1_554     S
Ti20     V16    9.997   1_554     S
Ti20     V22    9.981   1_565     S
Ti20     Er18    10.002   1_554     S
Ti20     Ti14    10.014   1_564     S
Ti20     Er17    10.007   1_654     S
V21     Er17    9.999   1_544     S
V21     Ti13    9.997   1_554     S
V21     Ti19    9.981   1_545     S
V21     Er24    9.985   1_455     S
V21     V15    9.994   1_545     S
V22     Er18    9.999   1_544     S
V22     Ti14    9.997   1_554     S
V22     Ti20    9.981   1_545     S
V22     Er23    9.985   .     S
V22     V16    9.994   1_545     S
Er23     V15    9.999   1_544     S
Er23     Ti13    10.002   1_554     S
Er23     Er18    10.01   1_544     S
Er23     Ti14    10.007   1_554     S
Er24     V16    9.999   1_544     S
Er24     V21    9.985   1_655     S
Er24     Ti14    10.002   1_554     S
Er24     Er17    10.01   1_644     S
Er24     Ti13    10.007   1_654     S
