data_zbo
_audit_creation_date              2019-12-31
_audit_creation_method            'Pymatgen'
_symmetry_space_group_name_H-M    'P1'
_symmetry_Int_Tables_number       1
loop_
_symmetry_equiv_pos_as_xyz
  x,y,z
_cell_length_a                    41.9511
_cell_length_b                    37.1548
_cell_length_c                    39.0078
_cell_angle_alpha                 90.0
_cell_angle_beta                 93.0781
_cell_angle_gamma                 90.0
loop_
_atom_site_label
_atom_site_type_symbol
_atom_site_fract_x
_atom_site_fract_y
_atom_site_fract_z
Er1     Er     0.8172   0.055   0.4046
Er2     Er     0.8172   0.055   0.9046
Er3     Er     0.8172   0.555   0.4046
Er4     Er     0.8172   0.555   0.9046
Ti5     Ti     0.665   0.2509   0.3432
Ti6     Ti     0.665   0.2509   0.8432
Ti7     Ti     0.665   0.7509   0.3432
Ti8     Ti     0.665   0.7509   0.8432
Er9     Er     0.6828   0.305   0.0954
Er10     Er     0.6828   0.305   0.5954
Er11     Er     0.6828   0.805   0.0954
Er12     Er     0.6828   0.805   0.5954
Ti13     Ti     0.835   0.0009   0.1568
Ti14     Ti     0.835   0.0009   0.6568
Ti15     Ti     0.835   0.5009   0.1568
Ti16     Ti     0.835   0.5009   0.6568
V17     V     0.6206   0.0   0.2569
V18     V     0.6206   0.0   0.7569
V19     V     0.6206   0.5   0.2569
V20     V     0.6206   0.5   0.7569
V21     V     0.8794   0.25   0.2431
V22     V     0.8794   0.25   0.7431
V23     V     0.8794   0.75   0.2431
V24     V     0.8794   0.75   0.7431
Er25     Er     0.1828   0.055   0.0954
Er26     Er     0.1828   0.055   0.5954
Er27     Er     0.1828   0.555   0.0954
Er28     Er     0.1828   0.555   0.5954
Ti29     Ti     0.335   0.2509   0.1568
Ti30     Ti     0.335   0.2509   0.6568
Ti31     Ti     0.335   0.7509   0.1568
Ti32     Ti     0.335   0.7509   0.6568
Er33     Er     0.3172   0.305   0.4046
Er34     Er     0.3172   0.305   0.9046
Er35     Er     0.3172   0.805   0.4046
Er36     Er     0.3172   0.805   0.9046
Ti37     Ti     0.165   0.0009   0.3432
Ti38     Ti     0.165   0.0009   0.8432
Ti39     Ti     0.165   0.5009   0.3432
Ti40     Ti     0.165   0.5009   0.8432
V41     V     0.1206   0.25   0.2569
V42     V     0.1206   0.25   0.7569
V43     V     0.1206   0.75   0.2569
V44     V     0.1206   0.75   0.7569
V45     V     0.3794   0.0   0.2431
V46     V     0.3794   0.0   0.7431
V47     V     0.3794   0.5   0.2431
V48     V     0.3794   0.5   0.7431
loop_
_geom_bond_atom_site_label_1
_geom_bond_atom_site_label_2
_geom_bond_distance
_geom_bond_site_symmetry_2
_ccdc_geom_bond_type
Er1     V17    10.012   .     S
Er1     Ti14    10.031   .     S
Er1     V21    10.038   .     S
Er1     Ti5    9.89   .     S
Er1     Ti13    9.939   .     S
Er2     V18    10.012   .     S
Er2     Ti13    10.031   1_556     S
Er2     V22    10.038   .     S
Er2     Ti6    9.89   .     S
Er2     Ti14    9.939   .     S
Er3     V19    10.012   .     S
Er3     Ti16    10.031   .     S
Er3     V23    10.038   .     S
Er3     Ti7    9.89   .     S
Er3     Ti15    9.939   .     S
Er4     V20    10.012   .     S
Er4     Ti15    10.031   1_556     S
Er4     V24    10.038   .     S
Er4     Ti8    9.89   .     S
Er4     Ti16    9.939   .     S
Ti5     V21    9.997   .     S
Ti5     Er10    10.031   .     S
Ti5     V19    9.991   .     S
Ti5     V17    10.05   .     S
Ti5     Er9    9.939   .     S
Ti6     V22    9.997   .     S
Ti6     Er9    10.031   1_556     S
Ti6     V20    9.991   .     S
Ti6     V18    10.05   .     S
Ti6     Er10    9.939   .     S
Ti7     V23    9.997   .     S
Ti7     Er12    10.031   .     S
Ti7     V17    9.991   1_565     S
Ti7     V19    10.05   .     S
Ti7     Er11    9.939   .     S
Ti8     V24    9.997   .     S
Ti8     Er11    10.031   1_556     S
Ti8     V18    9.991   1_565     S
Ti8     V20    10.05   .     S
Ti8     Er12    9.939   .     S
Er9     V21    10.012   .     S
Er9     Ti6    10.031   1_554     S
Er9     V19    10.038   .     S
Er9     Ti15    9.89   .     S
Er10     V22    10.012   .     S
Er10     V20    10.038   .     S
Er10     Ti16    9.89   .     S
Er11     V23    10.012   .     S
Er11     Ti8    10.031   1_554     S
Er11     V17    10.038   1_565     S
Er11     Ti13    9.89   1_565     S
Er12     V24    10.012   .     S
Er12     V18    10.038   1_565     S
Er12     Ti14    9.89   1_565     S
Ti13     V17    9.997   .     S
Ti13     Er2    10.031   1_554     S
Ti13     V21    9.991   .     S
Ti13     V23    10.05   1_545     S
Ti13     Er11    9.89   1_545     S
Ti14     V18    9.997   .     S
Ti14     V22    9.991   .     S
Ti14     V24    10.05   1_545     S
Ti14     Er12    9.89   1_545     S
Ti15     V19    9.997   .     S
Ti15     Er4    10.031   1_554     S
Ti15     V23    9.991   .     S
Ti15     V21    10.05   .     S
Ti16     V20    9.997   .     S
Ti16     V24    9.991   .     S
Ti16     V22    10.05   .     S
V17     Ti7    9.991   1_545     S
V17     Er11    10.038   1_545     S
V17     V45    10.104   .     S
V18     Ti8    9.991   1_545     S
V18     Er12    10.038   1_545     S
V18     V46    10.104   .     S
V19     V47    10.104   .     S
V20     V48    10.104   .     S
V21     V41    10.104   1_655     S
V22     V42    10.104   1_655     S
V23     Ti13    10.05   1_565     S
V23     V43    10.104   1_655     S
V24     Ti14    10.05   1_565     S
V24     V44    10.104   1_655     S
Er25     V45    10.012   .     S
Er25     Ti38    10.031   1_554     S
Er25     V41    10.038   .     S
Er25     Ti29    9.89   .     S
Er25     Ti37    9.939   .     S
Er26     V46    10.012   .     S
Er26     Ti37    10.031   .     S
Er26     V42    10.038   .     S
Er26     Ti30    9.89   .     S
Er26     Ti38    9.939   .     S
Er27     V47    10.012   .     S
Er27     Ti40    10.031   1_554     S
Er27     V43    10.038   .     S
Er27     Ti31    9.89   .     S
Er27     Ti39    9.939   .     S
Er28     V48    10.012   .     S
Er28     Ti39    10.031   .     S
Er28     V44    10.038   .     S
Er28     Ti32    9.89   .     S
Er28     Ti40    9.939   .     S
Ti29     V41    9.997   .     S
Ti29     Er34    10.031   1_554     S
Ti29     V47    9.991   .     S
Ti29     V45    10.05   .     S
Ti29     Er33    9.939   .     S
Ti30     V42    9.997   .     S
Ti30     Er33    10.031   .     S
Ti30     V48    9.991   .     S
Ti30     V46    10.05   .     S
Ti30     Er34    9.939   .     S
Ti31     V43    9.997   .     S
Ti31     Er36    10.031   1_554     S
Ti31     V45    9.991   1_565     S
Ti31     V47    10.05   .     S
Ti31     Er35    9.939   .     S
Ti32     V44    9.997   .     S
Ti32     Er35    10.031   .     S
Ti32     V46    9.991   1_565     S
Ti32     V48    10.05   .     S
Ti32     Er36    9.939   .     S
Er33     V41    10.012   .     S
Er33     V47    10.038   .     S
Er33     Ti39    9.89   .     S
Er34     V42    10.012   .     S
Er34     Ti29    10.031   1_556     S
Er34     V48    10.038   .     S
Er34     Ti40    9.89   .     S
Er35     V43    10.012   .     S
Er35     V45    10.038   1_565     S
Er35     Ti37    9.89   1_565     S
Er36     V44    10.012   .     S
Er36     Ti31    10.031   1_556     S
Er36     V46    10.038   1_565     S
Er36     Ti38    9.89   1_565     S
Ti37     V45    9.997   .     S
Ti37     V41    9.991   .     S
Ti37     V43    10.05   1_545     S
Ti37     Er35    9.89   1_545     S
Ti38     V46    9.997   .     S
Ti38     Er25    10.031   1_556     S
Ti38     V42    9.991   .     S
Ti38     V44    10.05   1_545     S
Ti38     Er36    9.89   1_545     S
Ti39     V47    9.997   .     S
Ti39     V43    9.991   .     S
Ti39     V41    10.05   .     S
Ti40     V48    9.997   .     S
Ti40     Er27    10.031   1_556     S
Ti40     V44    9.991   .     S
Ti40     V42    10.05   .     S
V41     V21    10.104   1_455     S
V42     V22    10.104   1_455     S
V43     Ti37    10.05   1_565     S
V43     V23    10.104   1_455     S
V44     Ti38    10.05   1_565     S
V44     V24    10.104   1_455     S
V45     Ti31    9.991   1_545     S
V45     Er35    10.038   1_545     S
V46     Ti32    9.991   1_545     S
V46     Er36    10.038   1_545     S
