data_zbr
_audit_creation_date              2019-12-31
_audit_creation_method            'Pymatgen'
_symmetry_space_group_name_H-M    'P1'
_symmetry_Int_Tables_number       1
loop_
_symmetry_equiv_pos_as_xyz
  x,y,z
_cell_length_a                    63.5291
_cell_length_b                    39.9998
_cell_length_c                    61.2939
_cell_angle_alpha                 90.0
_cell_angle_beta                 90.0
_cell_angle_gamma                 90.0
loop_
_atom_site_label
_atom_site_type_symbol
_atom_site_fract_x
_atom_site_fract_y
_atom_site_fract_z
Er1     Er     0.8074   0.25   0.1942
Er2     Er     0.8074   0.75   0.1942
Er3     Er     0.6926   0.25   0.3058
Er4     Er     0.6926   0.75   0.3058
Er5     Er     0.8074   0.0   0.1942
Er6     Er     0.8074   0.5   0.1942
Er7     Er     0.6926   0.0   0.3058
Er8     Er     0.6926   0.5   0.3058
Er9     Er     0.1926   0.25   0.1942
Er10     Er     0.1926   0.75   0.1942
Er11     Er     0.3074   0.25   0.3058
Er12     Er     0.3074   0.75   0.3058
Er13     Er     0.1926   0.0   0.1942
Er14     Er     0.1926   0.5   0.1942
Er15     Er     0.3074   0.0   0.3058
Er16     Er     0.3074   0.5   0.3058
V17     V     0.4213   0.0   0.5816
V18     V     0.4213   0.5   0.5816
V19     V     0.5787   0.0   0.5816
V20     V     0.5787   0.5   0.5816
V21     V     0.4213   0.0   0.4184
V22     V     0.4213   0.5   0.4184
V23     V     0.5787   0.0   0.4184
V24     V     0.5787   0.5   0.4184
V25     V     0.4213   0.25   0.5816
V26     V     0.4213   0.75   0.5816
V27     V     0.5787   0.25   0.5816
V28     V     0.5787   0.75   0.5816
V29     V     0.4213   0.25   0.4184
V30     V     0.4213   0.75   0.4184
V31     V     0.5787   0.25   0.4184
V32     V     0.5787   0.75   0.4184
Er33     Er     0.6926   0.0   0.6942
Er34     Er     0.6926   0.5   0.6942
Er35     Er     0.8074   0.0   0.8058
Er36     Er     0.8074   0.5   0.8058
Er37     Er     0.6926   0.25   0.6942
Er38     Er     0.6926   0.75   0.6942
Er39     Er     0.8074   0.25   0.8058
Er40     Er     0.8074   0.75   0.8058
Er41     Er     0.3074   0.25   0.6942
Er42     Er     0.3074   0.75   0.6942
Er43     Er     0.1926   0.25   0.8058
Er44     Er     0.1926   0.75   0.8058
Er45     Er     0.3074   0.0   0.6942
Er46     Er     0.3074   0.5   0.6942
Er47     Er     0.1926   0.0   0.8058
Er48     Er     0.1926   0.5   0.8058
V49     V     0.0787   0.25   0.9184
V50     V     0.0787   0.75   0.9184
V51     V     0.9213   0.25   0.9184
V52     V     0.9213   0.75   0.9184
V53     V     0.0787   0.25   0.0816
V54     V     0.0787   0.75   0.0816
V55     V     0.9213   0.25   0.0816
V56     V     0.9213   0.75   0.0816
V57     V     0.0787   0.0   0.9184
V58     V     0.0787   0.5   0.9184
V59     V     0.9213   0.0   0.9184
V60     V     0.9213   0.5   0.9184
V61     V     0.0787   0.0   0.0816
V62     V     0.0787   0.5   0.0816
V63     V     0.9213   0.0   0.0816
V64     V     0.9213   0.5   0.0816
loop_
_geom_bond_atom_site_label_1
_geom_bond_atom_site_label_2
_geom_bond_distance
_geom_bond_site_symmetry_2
_ccdc_geom_bond_type
Er1     Er3    10.0   .     S
Er1     Er6    10.0   .     S
Er1     V55    10.0   .     S
Er2     Er4    10.0   .     S
Er2     Er5    10.0   1_565     S
Er2     V56    10.0   .     S
Er3     Er8    10.0   .     S
Er3     V31    10.0   .     S
Er4     Er7    10.0   1_565     S
Er4     V32    10.0   .     S
Er5     Er7    10.0   .     S
Er5     Er2    10.0   1_545     S
Er5     V63    10.0   .     S
Er6     Er8    10.0   .     S
Er6     V64    10.0   .     S
Er7     Er4    10.0   1_545     S
Er7     V23    10.0   .     S
Er8     V24    10.0   .     S
Er9     Er11    10.0   .     S
Er9     Er14    10.0   .     S
Er9     V53    10.0   .     S
Er10     Er12    10.0   .     S
Er10     Er13    10.0   1_565     S
Er10     V54    10.0   .     S
Er11     Er16    10.0   .     S
Er11     V29    10.0   .     S
Er12     Er15    10.0   1_565     S
Er12     V30    10.0   .     S
Er13     Er15    10.0   .     S
Er13     Er10    10.0   1_545     S
Er13     V61    10.0   .     S
Er14     Er16    10.0   .     S
Er14     V62    10.0   .     S
Er15     Er12    10.0   1_545     S
Er15     V21    10.0   .     S
Er16     V22    10.0   .     S
V17     V19    9.999   .     S
V17     V21    9.999   .     S
V17     V26    10.0   1_545     S
V17     V25    10.0   .     S
V17     Er45    10.0   .     S
V18     V20    9.999   .     S
V18     V22    9.999   .     S
V18     V25    10.0   .     S
V18     V26    10.0   .     S
V18     Er46    10.0   .     S
V19     V23    9.999   .     S
V19     V28    10.0   1_545     S
V19     V27    10.0   .     S
V19     Er33    10.0   .     S
V20     V24    9.999   .     S
V20     V27    10.0   .     S
V20     V28    10.0   .     S
V20     Er34    10.0   .     S
V21     V23    9.999   .     S
V21     V30    10.0   1_545     S
V21     V29    10.0   .     S
V22     V24    9.999   .     S
V22     V29    10.0   .     S
V22     V30    10.0   .     S
V23     V32    10.0   1_545     S
V23     V31    10.0   .     S
V24     V31    10.0   .     S
V24     V32    10.0   .     S
V25     V27    9.999   .     S
V25     V29    9.999   .     S
V25     Er41    10.0   .     S
V26     V17    10.0   1_565     S
V26     V28    9.999   .     S
V26     V30    9.999   .     S
V26     Er42    10.0   .     S
V27     V31    9.999   .     S
V27     Er37    10.0   .     S
V28     V19    10.0   1_565     S
V28     V32    9.999   .     S
V28     Er38    10.0   .     S
V29     V31    9.999   .     S
V30     V21    10.0   1_565     S
V30     V32    9.999   .     S
V32     V23    10.0   1_565     S
Er33     Er35    10.0   .     S
Er33     Er37    10.0   .     S
Er34     Er36    10.0   .     S
Er34     Er38    10.0   .     S
Er35     Er39    10.0   .     S
Er35     V59    10.0   .     S
Er36     Er40    10.0   .     S
Er36     V60    10.0   .     S
Er37     Er39    10.0   .     S
Er38     Er40    10.0   .     S
Er39     V51    10.0   .     S
Er40     V52    10.0   .     S
Er41     Er43    10.0   .     S
Er41     Er45    10.0   .     S
Er42     Er44    10.0   .     S
Er42     Er46    10.0   .     S
Er43     Er47    10.0   .     S
Er43     V49    10.0   .     S
Er44     Er48    10.0   .     S
Er44     V50    10.0   .     S
Er45     Er47    10.0   .     S
Er46     Er48    10.0   .     S
Er47     V57    10.0   .     S
Er48     V58    10.0   .     S
V49     V51    9.999   1_455     S
V49     V53    9.999   1_556     S
V49     V58    10.0   .     S
V49     V57    10.0   .     S
V50     V52    9.999   1_455     S
V50     V54    9.999   1_556     S
V50     V57    10.0   1_565     S
V50     V58    10.0   .     S
V51     V49    9.999   1_655     S
V51     V55    9.999   1_556     S
V51     V60    10.0   .     S
V51     V59    10.0   .     S
V52     V50    9.999   1_655     S
V52     V56    9.999   1_556     S
V52     V59    10.0   1_565     S
V52     V60    10.0   .     S
V53     V55    9.999   1_455     S
V53     V49    9.999   1_554     S
V53     V62    10.0   .     S
V53     V61    10.0   .     S
V54     V56    9.999   1_455     S
V54     V50    9.999   1_554     S
V54     V61    10.0   1_565     S
V54     V62    10.0   .     S
V55     V53    9.999   1_655     S
V55     V51    9.999   1_554     S
V55     V64    10.0   .     S
V55     V63    10.0   .     S
V56     V54    9.999   1_655     S
V56     V52    9.999   1_554     S
V56     V63    10.0   1_565     S
V56     V64    10.0   .     S
V57     V59    9.999   1_455     S
V57     V61    9.999   1_556     S
V57     V50    10.0   1_545     S
V58     V60    9.999   1_455     S
V58     V62    9.999   1_556     S
V59     V57    9.999   1_655     S
V59     V63    9.999   1_556     S
V59     V52    10.0   1_545     S
V60     V58    9.999   1_655     S
V60     V64    9.999   1_556     S
V61     V63    9.999   1_455     S
V61     V57    9.999   1_554     S
V61     V54    10.0   1_545     S
V62     V64    9.999   1_455     S
V62     V58    9.999   1_554     S
V63     V61    9.999   1_655     S
V63     V59    9.999   1_554     S
V63     V56    10.0   1_545     S
V64     V62    9.999   1_655     S
V64     V60    9.999   1_554     S
