data_zbs
_audit_creation_date              2019-12-31
_audit_creation_method            'Pymatgen'
_symmetry_space_group_name_H-M    'P1'
_symmetry_Int_Tables_number       1
loop_
_symmetry_equiv_pos_as_xyz
  x,y,z
_cell_length_a                    31.9486
_cell_length_b                    31.9486
_cell_length_c                    38.1332
_cell_angle_alpha                 90.0
_cell_angle_beta                 90.0
_cell_angle_gamma                 90.0
loop_
_atom_site_label
_atom_site_type_symbol
_atom_site_fract_x
_atom_site_fract_y
_atom_site_fract_z
V1     V     0.8124   0.8825   0.0
V2     V     0.8124   0.8825   0.5
V3     V     0.1175   0.8124   0.0
V4     V     0.1175   0.8124   0.5
V5     V     0.8825   0.1876   0.0
V6     V     0.8825   0.1876   0.5
V7     V     0.1876   0.1175   0.0
V8     V     0.1876   0.1175   0.5
Er9     Er     0.5473   0.7162   0.0
Er10     Er     0.5473   0.7162   0.5
Er11     Er     0.2838   0.5473   0.0
Er12     Er     0.2838   0.5473   0.5
Er13     Er     0.7162   0.4527   0.0
Er14     Er     0.7162   0.4527   0.5
Er15     Er     0.4527   0.2838   0.0
Er16     Er     0.4527   0.2838   0.5
V17     V     0.8825   0.8124   0.25
V18     V     0.8825   0.8124   0.75
V19     V     0.8124   0.1175   0.25
V20     V     0.8124   0.1175   0.75
V21     V     0.1876   0.8825   0.25
V22     V     0.1876   0.8825   0.75
V23     V     0.1175   0.1876   0.25
V24     V     0.1175   0.1876   0.75
Er25     Er     0.7162   0.5473   0.25
Er26     Er     0.7162   0.5473   0.75
Er27     Er     0.5473   0.2838   0.25
Er28     Er     0.5473   0.2838   0.75
Er29     Er     0.4527   0.7162   0.25
Er30     Er     0.4527   0.7162   0.75
Er31     Er     0.2838   0.4527   0.25
Er32     Er     0.2838   0.4527   0.75
loop_
_geom_bond_atom_site_label_1
_geom_bond_atom_site_label_2
_geom_bond_distance
_geom_bond_site_symmetry_2
_ccdc_geom_bond_type
V1     V5    10.0   1_565     S
V1     V3    10.0   1_655     S
V1     Er9    10.0   .     S
V2     V6    10.0   1_565     S
V2     V4    10.0   1_655     S
V2     Er10    10.0   .     S
V3     V1    10.0   1_455     S
V3     V7    10.0   1_565     S
V3     Er11    10.0   .     S
V4     V2    10.0   1_455     S
V4     V8    10.0   1_565     S
V4     Er12    10.0   .     S
V5     V1    10.0   1_545     S
V5     V7    10.0   1_655     S
V5     Er13    10.0   .     S
V6     V2    10.0   1_545     S
V6     V8    10.0   1_655     S
V6     Er14    10.0   .     S
V7     V5    10.0   1_455     S
V7     V3    10.0   1_545     S
V7     Er15    10.0   .     S
V8     V6    10.0   1_455     S
V8     V4    10.0   1_545     S
V8     Er16    10.0   .     S
Er9     Er13    10.0   .     S
Er9     Er11    10.0   .     S
Er9     Er29    10.0   .     S
Er9     Er30    10.0   1_554     S
Er10     Er14    10.0   .     S
Er10     Er12    10.0   .     S
Er10     Er30    10.0   .     S
Er10     Er29    10.0   .     S
Er11     Er15    10.0   .     S
Er11     Er31    10.0   .     S
Er11     Er32    10.0   1_554     S
Er12     Er16    10.0   .     S
Er12     Er32    10.0   .     S
Er12     Er31    10.0   .     S
Er13     Er15    10.0   .     S
Er13     Er25    10.0   .     S
Er13     Er26    10.0   1_554     S
Er14     Er16    10.0   .     S
Er14     Er26    10.0   .     S
Er14     Er25    10.0   .     S
Er15     Er27    10.0   .     S
Er15     Er28    10.0   1_554     S
Er16     Er28    10.0   .     S
Er16     Er27    10.0   .     S
V17     V21    10.0   1_655     S
V17     V19    10.0   1_565     S
V17     Er25    10.0   .     S
V18     V22    10.0   1_655     S
V18     V20    10.0   1_565     S
V18     Er26    10.0   .     S
V19     V17    10.0   1_545     S
V19     V23    10.0   1_655     S
V19     Er27    10.0   .     S
V20     V18    10.0   1_545     S
V20     V24    10.0   1_655     S
V20     Er28    10.0   .     S
V21     V17    10.0   1_455     S
V21     V23    10.0   1_565     S
V21     Er29    10.0   .     S
V22     V18    10.0   1_455     S
V22     V24    10.0   1_565     S
V22     Er30    10.0   .     S
V23     V21    10.0   1_545     S
V23     V19    10.0   1_455     S
V23     Er31    10.0   .     S
V24     V22    10.0   1_545     S
V24     V20    10.0   1_455     S
V24     Er32    10.0   .     S
Er25     Er29    10.0   .     S
Er25     Er27    10.0   .     S
Er26     Er13    10.0   1_556     S
Er26     Er30    10.0   .     S
Er26     Er28    10.0   .     S
Er27     Er31    10.0   .     S
Er28     Er15    10.0   1_556     S
Er28     Er32    10.0   .     S
Er29     Er31    10.0   .     S
Er30     Er32    10.0   .     S
Er30     Er9    10.0   1_556     S
Er32     Er11    10.0   1_556     S
