data_zbt
_audit_creation_date              2019-12-31
_audit_creation_method            'Pymatgen'
_symmetry_space_group_name_H-M    'P1'
_symmetry_Int_Tables_number       1
loop_
_symmetry_equiv_pos_as_xyz
  x,y,z
_cell_length_a                    40.0001
_cell_length_b                    39.9998
_cell_length_c                    24.1421
_cell_angle_alpha                 90.0
_cell_angle_beta                 90.0
_cell_angle_gamma                 90.0
loop_
_atom_site_label
_atom_site_type_symbol
_atom_site_fract_x
_atom_site_fract_y
_atom_site_fract_z
V1     V     0.5   0.25   0.2071
V2     V     0.5   0.75   0.2071
V3     V     0.0   0.0   0.2071
V4     V     0.0   0.5   0.2071
V5     V     0.5   0.25   0.7929
V6     V     0.5   0.75   0.7929
V7     V     0.0   0.0   0.7929
V8     V     0.0   0.5   0.7929
Er9     Er     0.625   0.375   0.5
Er10     Er     0.625   0.875   0.5
Er11     Er     0.625   0.125   0.5
Er12     Er     0.625   0.625   0.5
Er13     Er     0.375   0.375   0.5
Er14     Er     0.375   0.875   0.5
Er15     Er     0.375   0.125   0.5
Er16     Er     0.375   0.625   0.5
Er17     Er     0.125   0.375   0.5
Er18     Er     0.125   0.875   0.5
Er19     Er     0.125   0.125   0.5
Er20     Er     0.125   0.625   0.5
Er21     Er     0.875   0.375   0.5
Er22     Er     0.875   0.875   0.5
Er23     Er     0.875   0.125   0.5
Er24     Er     0.875   0.625   0.5
loop_
_geom_bond_atom_site_label_1
_geom_bond_atom_site_label_2
_geom_bond_distance
_geom_bond_site_symmetry_2
_ccdc_geom_bond_type
V1     Er15    10.0   .     S
V1     Er9    10.0   .     S
V1     Er13    10.0   .     S
V1     Er11    10.0   .     S
V1     V5    10.0   1_554     S
V2     Er16    10.0   .     S
V2     Er10    10.0   .     S
V2     Er14    10.0   .     S
V2     Er12    10.0   .     S
V2     V6    10.0   1_554     S
V3     Er22    10.0   1_445     S
V3     Er23    10.0   1_455     S
V3     Er18    10.0   1_545     S
V3     Er19    10.0   .     S
V3     V7    10.0   1_554     S
V4     Er21    10.0   1_455     S
V4     Er24    10.0   1_455     S
V4     Er17    10.0   .     S
V4     Er20    10.0   .     S
V4     V8    10.0   1_554     S
V5     Er11    10.0   .     S
V5     Er13    10.0   .     S
V5     Er15    10.0   .     S
V5     Er9    10.0   .     S
V5     V1    10.0   1_556     S
V6     Er12    10.0   .     S
V6     Er14    10.0   .     S
V6     Er16    10.0   .     S
V6     Er10    10.0   .     S
V6     V2    10.0   1_556     S
V7     Er23    10.0   1_455     S
V7     Er22    10.0   1_445     S
V7     Er18    10.0   1_545     S
V7     Er19    10.0   .     S
V7     V3    10.0   1_556     S
V8     Er24    10.0   1_455     S
V8     Er21    10.0   1_455     S
V8     Er17    10.0   .     S
V8     Er20    10.0   .     S
V8     V4    10.0   1_556     S
Er9     Er12    10.0   .     S
Er9     Er11    10.0   .     S
Er9     Er21    10.0   .     S
Er9     Er13    10.0   .     S
Er10     Er11    10.0   1_565     S
Er10     Er12    10.0   .     S
Er10     Er22    10.0   .     S
Er10     Er14    10.0   .     S
Er11     Er10    10.0   1_545     S
Er11     Er23    10.0   .     S
Er11     Er15    10.0   .     S
Er12     Er24    10.0   .     S
Er12     Er16    10.0   .     S
Er13     Er16    10.0   .     S
Er13     Er15    10.0   .     S
Er13     Er17    10.0   .     S
Er14     Er15    10.0   1_565     S
Er14     Er16    10.0   .     S
Er14     Er18    10.0   .     S
Er15     Er14    10.0   1_545     S
Er15     Er19    10.0   .     S
Er16     Er20    10.0   .     S
Er17     Er20    10.0   .     S
Er17     Er19    10.0   .     S
Er17     Er21    10.0   1_455     S
Er18     V3    10.0   1_565     S
Er18     V7    10.0   1_565     S
Er18     Er19    10.0   1_565     S
Er18     Er20    10.0   .     S
Er18     Er22    10.0   1_455     S
Er19     Er18    10.0   1_545     S
Er19     Er23    10.0   1_455     S
Er20     Er24    10.0   1_455     S
Er21     V4    10.0   1_655     S
Er21     V8    10.0   1_655     S
Er21     Er24    10.0   .     S
Er21     Er23    10.0   .     S
Er21     Er17    10.0   1_655     S
Er22     V3    10.0   1_665     S
Er22     V7    10.0   1_665     S
Er22     Er23    10.0   1_565     S
Er22     Er24    10.0   .     S
Er22     Er18    10.0   1_655     S
Er23     V3    10.0   1_655     S
Er23     V7    10.0   1_655     S
Er23     Er22    10.0   1_545     S
Er23     Er19    10.0   1_655     S
Er24     V4    10.0   1_655     S
Er24     V8    10.0   1_655     S
Er24     Er20    10.0   1_655     S
