data_zbw
_audit_creation_date              2019-12-31
_audit_creation_method            'Pymatgen'
_symmetry_space_group_name_H-M    'P1'
_symmetry_Int_Tables_number       1
loop_
_symmetry_equiv_pos_as_xyz
  x,y,z
_cell_length_a                    29.5957
_cell_length_b                    30.0139
_cell_length_c                    42.048
_cell_angle_alpha                 90.0
_cell_angle_beta                 107.9732
_cell_angle_gamma                 90.0
loop_
_atom_site_label
_atom_site_type_symbol
_atom_site_fract_x
_atom_site_fract_y
_atom_site_fract_z
Er1     Er     0.5474   0.2154   0.2829
Er2     Er     0.5474   0.2154   0.7829
Er3     Er     0.4526   0.2154   0.4671
Er4     Er     0.4526   0.2154   0.9671
V5     V     0.3313   0.035   0.0929
V6     V     0.3313   0.035   0.5929
V7     V     0.6687   0.035   0.1571
V8     V     0.6687   0.035   0.6571
Er9     Er     0.5474   0.7846   0.0329
Er10     Er     0.5474   0.7846   0.5329
Er11     Er     0.4526   0.7846   0.2171
Er12     Er     0.4526   0.7846   0.7171
V13     V     0.3313   0.965   0.3429
V14     V     0.3313   0.965   0.8429
V15     V     0.6687   0.965   0.4071
V16     V     0.6687   0.965   0.9071
Er17     Er     0.9526   0.2846   0.2171
Er18     Er     0.9526   0.2846   0.7171
Er19     Er     0.0474   0.2846   0.0329
Er20     Er     0.0474   0.2846   0.5329
V21     V     0.8313   0.465   0.3429
V22     V     0.8313   0.465   0.8429
V23     V     0.1687   0.465   0.4071
V24     V     0.1687   0.465   0.9071
Er25     Er     0.0474   0.7154   0.2829
Er26     Er     0.0474   0.7154   0.7829
Er27     Er     0.9526   0.7154   0.4671
Er28     Er     0.9526   0.7154   0.9671
V29     V     0.1687   0.535   0.1571
V30     V     0.1687   0.535   0.6571
V31     V     0.8313   0.535   0.0929
V32     V     0.8313   0.535   0.5929
loop_
_geom_bond_atom_site_label_1
_geom_bond_atom_site_label_2
_geom_bond_distance
_geom_bond_site_symmetry_2
_ccdc_geom_bond_type
Er1     V15    9.224   1_545     S
Er1     V7    9.051   .     S
Er1     Er3    9.017   .     S
Er1     V5    10.125   .     S
Er1     V21    10.954   .     S
Er1     V13    10.665   1_545     S
Er2     V16    9.224   1_545     S
Er2     V8    9.051   .     S
Er2     Er4    9.017   .     S
Er2     V6    10.125   .     S
Er2     V22    10.954   .     S
Er2     V14    10.665   1_545     S
Er3     V13    9.224   1_545     S
Er3     V6    9.051   .     S
Er3     V8    10.125   .     S
Er3     V23    10.954   .     S
Er3     V15    10.665   1_545     S
Er4     V14    9.224   1_545     S
Er4     V5    9.051   1_556     S
Er4     V7    10.125   1_556     S
Er4     V24    10.954   .     S
Er4     V16    10.665   1_545     S
V5     Er11    9.224   1_545     S
V5     Er4    9.051   1_554     S
V5     Er19    10.954   .     S
V5     V7    9.507   .     S
V5     Er9    10.665   1_545     S
V5     V14    10.72   1_544     S
V5     V13    10.72   1_545     S
V6     Er12    9.224   1_545     S
V6     Er20    10.954   .     S
V6     V8    9.507   .     S
V6     Er10    10.665   1_545     S
V6     V13    10.72   1_545     S
V6     V14    10.72   1_545     S
V7     Er9    9.224   1_545     S
V7     Er4    10.125   1_554     S
V7     Er17    10.954   .     S
V7     Er11    10.665   1_545     S
V7     V15    10.72   1_545     S
V7     V16    10.72   1_544     S
V8     Er10    9.224   1_545     S
V8     Er18    10.954   .     S
V8     Er12    10.665   1_545     S
V8     V16    10.72   1_545     S
V8     V15    10.72   1_545     S
Er9     V7    9.224   1_565     S
Er9     V16    9.051   1_554     S
Er9     Er11    9.017   .     S
Er9     V14    10.125   1_554     S
Er9     V31    10.954   .     S
Er9     V5    10.665   1_565     S
Er10     V8    9.224   1_565     S
Er10     V15    9.051   .     S
Er10     Er12    9.017   .     S
Er10     V13    10.125   .     S
Er10     V32    10.954   .     S
Er10     V6    10.665   1_565     S
Er11     V5    9.224   1_565     S
Er11     V13    9.051   .     S
Er11     V15    10.125   .     S
Er11     V29    10.954   .     S
Er11     V7    10.665   1_565     S
Er12     V6    9.224   1_565     S
Er12     V14    9.051   .     S
Er12     V16    10.125   .     S
Er12     V30    10.954   .     S
Er12     V8    10.665   1_565     S
V13     Er3    9.224   1_565     S
V13     Er25    10.954   .     S
V13     V15    9.507   .     S
V13     Er1    10.665   1_565     S
V13     V6    10.72   1_565     S
V13     V5    10.72   1_565     S
V14     Er4    9.224   1_565     S
V14     Er9    10.125   1_556     S
V14     Er26    10.954   .     S
V14     V16    9.507   .     S
V14     Er2    10.665   1_565     S
V14     V5    10.72   1_566     S
V14     V6    10.72   1_565     S
V15     Er1    9.224   1_565     S
V15     Er27    10.954   .     S
V15     Er3    10.665   1_565     S
V15     V7    10.72   1_565     S
V15     V8    10.72   1_565     S
V16     Er2    9.224   1_565     S
V16     Er9    9.051   1_556     S
V16     Er28    10.954   .     S
V16     Er4    10.665   1_565     S
V16     V8    10.72   1_565     S
V16     V7    10.72   1_566     S
Er17     V31    9.224   .     S
Er17     V21    9.051   .     S
Er17     Er19    9.017   1_655     S
Er17     V23    10.125   1_655     S
Er17     V29    10.665   1_655     S
Er18     V32    9.224   .     S
Er18     V22    9.051   .     S
Er18     Er20    9.017   1_655     S
Er18     V24    10.125   1_655     S
Er18     V30    10.665   1_655     S
Er19     V29    9.224   .     S
Er19     V24    9.051   1_554     S
Er19     Er17    9.017   1_455     S
Er19     V22    10.125   1_454     S
Er19     V31    10.665   1_455     S
Er20     V30    9.224   .     S
Er20     V23    9.051   .     S
Er20     Er18    9.017   1_455     S
Er20     V21    10.125   1_455     S
Er20     V32    10.665   1_455     S
V21     Er27    9.224   .     S
V21     Er20    10.125   1_655     S
V21     V23    9.507   1_655     S
V21     Er25    10.665   1_655     S
V21     V31    10.72   .     S
V21     V32    10.72   .     S
V22     Er28    9.224   .     S
V22     Er19    10.125   1_656     S
V22     V24    9.507   1_655     S
V22     Er26    10.665   1_655     S
V22     V32    10.72   .     S
V22     V31    10.72   1_556     S
V23     Er25    9.224   .     S
V23     Er17    10.125   1_455     S
V23     V21    9.507   1_455     S
V23     Er27    10.665   1_455     S
V23     V30    10.72   .     S
V23     V29    10.72   .     S
V24     Er26    9.224   .     S
V24     Er19    9.051   1_556     S
V24     Er18    10.125   1_455     S
V24     V22    9.507   1_455     S
V24     Er28    10.665   1_455     S
V24     V29    10.72   1_556     S
V24     V30    10.72   .     S
Er25     V29    9.051   .     S
Er25     Er27    9.017   1_455     S
Er25     V31    10.125   1_455     S
Er25     V21    10.665   1_455     S
Er26     V30    9.051   .     S
Er26     Er28    9.017   1_455     S
Er26     V32    10.125   1_455     S
Er26     V22    10.665   1_455     S
Er27     V32    9.051   .     S
Er27     Er25    9.017   1_655     S
Er27     V30    10.125   1_655     S
Er27     V23    10.665   1_655     S
Er28     V31    9.051   1_556     S
Er28     Er26    9.017   1_655     S
Er28     V29    10.125   1_656     S
Er28     V24    10.665   1_655     S
V29     Er28    10.125   1_454     S
V29     V31    9.507   1_455     S
V29     Er17    10.665   1_455     S
V29     V24    10.72   1_554     S
V30     Er27    10.125   1_455     S
V30     V32    9.507   1_455     S
V30     Er18    10.665   1_455     S
V31     Er28    9.051   1_554     S
V31     Er25    10.125   1_655     S
V31     V29    9.507   1_655     S
V31     Er19    10.665   1_655     S
V31     V22    10.72   1_554     S
V32     Er26    10.125   1_655     S
V32     V30    9.507   1_655     S
V32     Er20    10.665   1_655     S
