data_zby
_audit_creation_date              2019-12-31
_audit_creation_method            'Pymatgen'
_symmetry_space_group_name_H-M    'P1'
_symmetry_Int_Tables_number       1
loop_
_symmetry_equiv_pos_as_xyz
  x,y,z
_cell_length_a                    37.8602
_cell_length_b                    34.2865
_cell_length_c                    22.213
_cell_angle_alpha                 90.0
_cell_angle_beta                 105.055
_cell_angle_gamma                 90.0
loop_
_atom_site_label
_atom_site_type_symbol
_atom_site_fract_x
_atom_site_fract_y
_atom_site_fract_z
Ti1     Ti     0.4482   0.81   0.3871
Ti2     Ti     0.9482   0.81   0.3871
Er3     Er     0.0475   0.045   0.2204
Er4     Er     0.5475   0.045   0.2204
Ti5     Ti     0.0518   0.1899   0.6129
Ti6     Ti     0.5518   0.1899   0.6129
Er7     Er     0.4525   0.955   0.7796
Er8     Er     0.9525   0.955   0.7796
V9     V     0.3198   0.0665   0.3668
V10     V     0.8198   0.0665   0.3668
V11     V     0.1802   0.9335   0.6332
V12     V     0.6802   0.9335   0.6332
Ti13     Ti     0.3018   0.3101   0.1129
Ti14     Ti     0.8018   0.3101   0.1129
Er15     Er     0.2025   0.545   0.2796
Er16     Er     0.7025   0.545   0.2796
Ti17     Ti     0.1982   0.6899   0.8871
Ti18     Ti     0.6982   0.6899   0.8871
Er19     Er     0.2975   0.455   0.7204
Er20     Er     0.7975   0.455   0.7204
V21     V     0.0698   0.4335   0.8668
V22     V     0.5698   0.4335   0.8668
V23     V     0.4302   0.5665   0.1332
V24     V     0.9302   0.5665   0.1332
loop_
_geom_bond_atom_site_label_1
_geom_bond_atom_site_label_2
_geom_bond_distance
_geom_bond_site_symmetry_2
_ccdc_geom_bond_type
Ti1     Er4    9.999   1_565     S
Ti1     V9    10.0   1_565     S
Ti1     Er7    10.0   .     S
Ti1     V12    10.0   .     S
Ti1     V23    10.001   .     S
Ti2     Er3    9.999   1_665     S
Ti2     V10    10.0   1_565     S
Ti2     Er8    10.0   .     S
Ti2     V11    10.0   1_655     S
Ti2     V24    10.001   .     S
Er3     V9    10.0   .     S
Er3     Ti2    9.999   1_445     S
Er3     V10    10.0   1_455     S
Er3     V11    10.0   1_545     S
Er3     Ti5    10.0   .     S
Er3     Er8    10.001   1_444     S
Er4     V10    10.0   .     S
Er4     Ti1    9.999   1_545     S
Er4     V9    10.0   .     S
Er4     V12    10.0   1_545     S
Er4     Ti6    10.0   .     S
Er4     Er7    10.001   1_544     S
Ti5     Er8    9.999   1_445     S
Ti5     V10    10.0   1_455     S
Ti5     V11    10.0   1_545     S
Ti5     V21    10.001   .     S
Ti6     Er7    9.999   1_545     S
Ti6     V9    10.0   .     S
Ti6     V12    10.0   1_545     S
Ti6     V22    10.001   .     S
Er7     V11    10.0   .     S
Er7     Ti6    9.999   1_565     S
Er7     V9    10.0   1_565     S
Er7     V12    10.0   .     S
Er7     Er4    10.001   1_566     S
Er8     V12    10.0   .     S
Er8     Ti5    9.999   1_665     S
Er8     V10    10.0   1_565     S
Er8     V11    10.0   1_655     S
Er8     Er3    10.001   1_666     S
V9     V11    10.001   1_545     S
V9     Ti1    10.0   1_545     S
V9     Er7    10.0   1_545     S
V9     Ti13    10.001   .     S
V10     V12    10.001   1_545     S
V10     Ti2    10.0   1_545     S
V10     Er3    10.0   1_655     S
V10     Er8    10.0   1_545     S
V10     Ti5    10.0   1_655     S
V10     Ti14    10.001   .     S
V11     V9    10.001   1_565     S
V11     Ti5    10.0   1_565     S
V11     Er8    10.0   1_455     S
V11     Er3    10.0   1_565     S
V11     Ti2    10.0   1_455     S
V11     Ti17    10.001   .     S
V12     V10    10.001   1_565     S
V12     Ti6    10.0   1_565     S
V12     Er4    10.0   1_565     S
V12     Ti18    10.001   .     S
Ti13     Er15    9.999   .     S
Ti13     V21    10.0   1_554     S
Ti13     V23    10.0   .     S
Ti13     Er19    10.0   1_554     S
Ti14     Er16    9.999   .     S
Ti14     V22    10.0   1_554     S
Ti14     V24    10.0   .     S
Ti14     Er20    10.0   1_554     S
Er15     V24    10.0   1_455     S
Er15     V21    10.0   1_554     S
Er15     Ti17    10.0   1_554     S
Er15     V23    10.0   .     S
Er15     Er19    10.001   .     S
Er16     V23    10.0   .     S
Er16     V22    10.0   1_554     S
Er16     Ti18    10.0   1_554     S
Er16     V24    10.0   .     S
Er16     Er20    10.001   .     S
Ti17     Er19    9.999   .     S
Ti17     V21    10.0   .     S
Ti17     Er15    10.0   1_556     S
Ti17     V23    10.0   1_556     S
Ti18     Er20    9.999   .     S
Ti18     V22    10.0   .     S
Ti18     Er16    10.0   1_556     S
Ti18     V24    10.0   1_556     S
Er19     V22    10.0   .     S
Er19     V21    10.0   .     S
Er19     V23    10.0   1_556     S
Er19     Ti13    10.0   1_556     S
Er20     V21    10.0   1_655     S
Er20     V22    10.0   .     S
Er20     V24    10.0   1_556     S
Er20     Ti14    10.0   1_556     S
V21     Er20    10.0   1_455     S
V21     V24    10.001   1_456     S
V21     Er15    10.0   1_556     S
V21     Ti13    10.0   1_556     S
V22     V23    10.001   1_556     S
V22     Er16    10.0   1_556     S
V22     Ti14    10.0   1_556     S
V23     V22    10.001   1_554     S
V23     Er19    10.0   1_554     S
V23     Ti17    10.0   1_554     S
V24     V21    10.001   1_654     S
V24     Er15    10.0   1_655     S
V24     Er20    10.0   1_554     S
V24     Ti18    10.0   1_554     S
