data_zca
_audit_creation_date              2019-12-31
_audit_creation_method            'Pymatgen'
_symmetry_space_group_name_H-M    'P1'
_symmetry_Int_Tables_number       1
loop_
_symmetry_equiv_pos_as_xyz
  x,y,z
_cell_length_a                    33.9642
_cell_length_b                    27.3546
_cell_length_c                    36.5183
_cell_angle_alpha                 90.0
_cell_angle_beta                 97.0452
_cell_angle_gamma                 90.0
loop_
_atom_site_label
_atom_site_type_symbol
_atom_site_fract_x
_atom_site_fract_y
_atom_site_fract_z
Ti1     Ti     0.3143   0.6536   0.0521
Ti2     Ti     0.8143   0.6536   0.0521
Er3     Er     0.0828   0.7118   0.1904
Er4     Er     0.5828   0.7118   0.1904
V5     V     0.3659   0.9701   0.9303
V6     V     0.8659   0.9701   0.9303
Ti7     Ti     0.1857   0.3465   0.9479
Ti8     Ti     0.6857   0.3465   0.9479
Er9     Er     0.4172   0.2882   0.8096
Er10     Er     0.9172   0.2882   0.8096
V11     V     0.1341   0.0299   0.0697
V12     V     0.6341   0.0299   0.0697
Ti13     Ti     0.4357   0.1536   0.4479
Ti14     Ti     0.9357   0.1536   0.4479
Er15     Er     0.1672   0.2118   0.3096
Er16     Er     0.6672   0.2118   0.3096
V17     V     0.3841   0.4701   0.5697
V18     V     0.8841   0.4701   0.5697
Ti19     Ti     0.0643   0.8464   0.5521
Ti20     Ti     0.5643   0.8464   0.5521
Er21     Er     0.3328   0.7882   0.6904
Er22     Er     0.8328   0.7882   0.6904
V23     V     0.1159   0.5299   0.4303
V24     V     0.6159   0.5299   0.4303
loop_
_geom_bond_atom_site_label_1
_geom_bond_atom_site_label_2
_geom_bond_distance
_geom_bond_site_symmetry_2
_ccdc_geom_bond_type
Ti1     Er3    9.98   .     S
Ti1     V5    9.988   1_554     S
Ti1     Er4    9.994   .     S
Ti1     Ti7    10.004   1_554     S
Ti2     Er4    9.98   .     S
Ti2     V6    9.988   1_554     S
Ti2     Er3    9.994   1_655     S
Ti2     Ti8    10.004   1_554     S
Er3     Ti2    9.994   1_455     S
Er3     V11    10.003   1_565     S
Er3     V23    10.019   .     S
Er4     V12    10.003   1_565     S
Er4     V24    10.019   .     S
V5     Ti1    9.988   1_556     S
V5     Er9    10.003   1_565     S
V5     V12    10.012   1_566     S
V5     V11    10.018   1_566     S
V5     Er21    10.019   .     S
V6     Ti2    9.988   1_556     S
V6     Er10    10.003   1_565     S
V6     V11    10.012   1_666     S
V6     V12    10.018   1_566     S
V6     Er22    10.019   .     S
Ti7     Er9    9.98   .     S
Ti7     V11    9.988   1_556     S
Ti7     Er10    9.994   1_455     S
Ti7     Ti1    10.004   1_556     S
Ti8     Er10    9.98   .     S
Ti8     V12    9.988   1_556     S
Ti8     Er9    9.994   .     S
Ti8     Ti2    10.004   1_556     S
Er9     V5    10.003   1_545     S
Er9     V17    10.019   .     S
Er10     Ti7    9.994   1_655     S
Er10     V6    10.003   1_545     S
Er10     V18    10.019   .     S
V11     Ti7    9.988   1_554     S
V11     Er3    10.003   1_545     S
V11     V6    10.012   1_444     S
V11     V5    10.018   1_544     S
V11     Er15    10.019   .     S
V12     Ti8    9.988   1_554     S
V12     Er4    10.003   1_545     S
V12     V5    10.012   1_544     S
V12     V6    10.018   1_544     S
V12     Er16    10.019   .     S
Ti13     Er16    9.98   .     S
Ti13     V17    9.988   .     S
Ti13     Er15    9.994   .     S
Ti13     Ti20    10.004   1_545     S
Ti14     Er15    9.98   1_655     S
Ti14     V18    9.988   .     S
Ti14     Er16    9.994   .     S
Ti14     Ti19    10.004   1_645     S
Er15     Ti14    9.98   1_455     S
Er15     V23    10.003   .     S
Er16     V24    10.003   .     S
V17     Er21    10.003   .     S
V17     V23    10.012   .     S
V17     V24    10.018   .     S
V18     Er22    10.003   .     S
V18     V24    10.012   .     S
V18     V23    10.018   1_655     S
Ti19     Er22    9.98   1_455     S
Ti19     V23    9.988   .     S
Ti19     Er21    9.994   .     S
Ti19     Ti14    10.004   1_465     S
Ti20     Er21    9.98   .     S
Ti20     V24    9.988   .     S
Ti20     Er22    9.994   .     S
Ti20     Ti13    10.004   1_565     S
Er22     Ti19    9.98   1_655     S
V23     V18    10.018   1_455     S
