data_zcb
_audit_creation_date              2019-12-31
_audit_creation_method            'Pymatgen'
_symmetry_space_group_name_H-M    'P1'
_symmetry_Int_Tables_number       1
loop_
_symmetry_equiv_pos_as_xyz
  x,y,z
_cell_length_a                    38.3432
_cell_length_b                    42.1221
_cell_length_c                    38.1985
_cell_angle_alpha                 90.0
_cell_angle_beta                 96.0467
_cell_angle_gamma                 90.0
loop_
_atom_site_label
_atom_site_type_symbol
_atom_site_fract_x
_atom_site_fract_y
_atom_site_fract_z
V1     V     1.0   0.5786   0.25
V2     V     0.5   0.5786   0.25
Er3     Er     0.0252   0.3722   0.1248
Er4     Er     0.5252   0.3722   0.1248
Er5     Er     0.4748   0.3722   0.3752
Er6     Er     0.9748   0.3722   0.3752
Er7     Er     0.4748   0.6278   0.8752
Er8     Er     0.9748   0.6278   0.8752
Er9     Er     0.0252   0.6278   0.6248
Er10     Er     0.5252   0.6278   0.6248
Ce11     Ce     0.1503   0.9573   0.1134
Ce12     Ce     0.6503   0.9573   0.1134
H13     H     0.0948   0.0199   0.3524
H14     H     0.5948   0.0199   0.3524
H15     H     0.4052   0.0199   0.1476
H16     H     0.9052   0.0199   0.1476
S17     S     1.0   0.8172   0.25
S18     S     0.5   0.8172   0.25
Ce19     Ce     0.3497   0.9573   0.3867
Ce20     Ce     0.8497   0.9573   0.3867
Ti21     Ti     0.0508   0.8395   0.5111
Ti22     Ti     0.5508   0.8395   0.5111
Ti23     Ti     0.4492   0.8395   0.9889
Ti24     Ti     0.9492   0.8395   0.9889
Ce25     Ce     0.3497   0.0427   0.8866
Ce26     Ce     0.8497   0.0427   0.8866
H27     H     0.4052   0.9801   0.6476
H28     H     0.9052   0.9801   0.6476
H29     H     0.0948   0.9801   0.8524
H30     H     0.5948   0.9801   0.8524
S31     S     0.0   0.1828   0.75
S32     S     0.5   0.1828   0.75
Ce33     Ce     0.1503   0.0427   0.6133
Ce34     Ce     0.6503   0.0427   0.6133
Ti35     Ti     0.4492   0.1605   0.4889
Ti36     Ti     0.9492   0.1605   0.4889
Ti37     Ti     0.0508   0.1605   0.0111
Ti38     Ti     0.5508   0.1605   0.0111
V39     V     0.0   0.4214   0.75
V40     V     0.5   0.4214   0.75
loop_
_geom_bond_atom_site_label_1
_geom_bond_atom_site_label_2
_geom_bond_distance
_geom_bond_site_symmetry_2
_ccdc_geom_bond_type
V1     Er3    10.016   1_655     S
V1     Er6    10.016   .     S
V1     S17    10.051   .     S
V2     Er4    10.016   .     S
V2     Er5    10.016   .     S
V2     S18    10.051   .     S
Er3     Er6    9.955   1_455     S
Er3     V1    10.016   1_455     S
Er3     Ti37    10.015   .     S
Er4     Er5    9.955   .     S
Er4     Ti38    10.015   .     S
Er5     Ti35    10.015   .     S
Er6     Er3    9.955   1_655     S
Er6     Ti36    10.015   .     S
Er7     Er10    9.955   .     S
Er7     V40    10.016   .     S
Er7     Ti23    10.015   .     S
Er8     Er9    9.955   1_655     S
Er8     V39    10.016   1_655     S
Er8     Ti24    10.015   .     S
Er9     Er8    9.955   1_455     S
Er9     V39    10.016   .     S
Er9     Ti21    10.015   .     S
Er10     V40    10.016   .     S
Er10     Ti22    10.015   .     S
Ce11     H13    9.946   1_565     S
Ce11     Ti24    9.948   1_454     S
Ce11     Ti37    9.995   1_565     S
Ce11     H16    9.977   1_465     S
Ce11     H29    10.018   1_554     S
Ce11     S17    10.081   1_455     S
Ce11     H15    10.076   1_565     S
Ce12     H14    9.946   1_565     S
Ce12     Ti23    9.948   1_554     S
Ce12     Ti38    9.995   1_565     S
Ce12     H15    9.977   1_565     S
Ce12     H30    10.018   1_554     S
Ce12     S18    10.081   .     S
Ce12     H16    10.076   1_565     S
H13     Ce11    9.946   1_545     S
H13     Ti21    9.974   1_545     S
H13     Ce20    9.977   1_445     S
H13     Ti36    9.979   1_455     S
H13     Ce33    10.018   .     S
H13     H16    10.1   1_455     S
H13     Ce19    10.076   1_545     S
H13     S17    9.919   1_445     S
H14     Ce12    9.946   1_545     S
H14     Ti22    9.974   1_545     S
H14     Ce19    9.977   1_545     S
H14     Ti35    9.979   .     S
H14     Ce34    10.018   .     S
H14     H15    10.1   .     S
H14     Ce20    10.076   1_545     S
H14     S18    9.919   1_545     S
H15     Ce19    9.946   1_545     S
H15     Ti38    9.979   .     S
H15     Ti23    9.974   1_544     S
H15     Ce12    9.977   1_545     S
H15     Ce25    10.018   1_554     S
H15     Ce11    10.076   1_545     S
H15     S18    9.919   1_545     S
H16     Ce20    9.946   1_545     S
H16     Ti37    9.979   1_655     S
H16     Ti24    9.974   1_544     S
H16     Ce11    9.977   1_645     S
H16     Ce26    10.018   1_554     S
H16     H13    10.1   1_655     S
H16     Ce12    10.076   1_545     S
H16     S17    9.919   1_545     S
S17     Ti21    10.002   1_655     S
S17     Ti24    10.002   1_554     S
S17     Ce11    10.081   1_655     S
S17     Ce20    10.081   .     S
S17     H13    9.919   1_665     S
S17     H16    9.919   1_565     S
S18     Ti22    10.002   .     S
S18     Ti23    10.002   1_554     S
S18     Ce19    10.081   .     S
S18     H14    9.919   1_565     S
S18     H15    9.919   1_565     S
Ce19     H15    9.946   1_565     S
Ce19     Ti22    9.948   .     S
Ce19     H14    9.977   1_565     S
Ce19     Ti35    9.995   1_565     S
Ce19     H27    10.018   .     S
Ce19     H13    10.076   1_565     S
Ce20     H16    9.946   1_565     S
Ce20     Ti21    9.948   1_655     S
Ce20     H13    9.977   1_665     S
Ce20     Ti36    9.995   1_565     S
Ce20     H28    10.018   .     S
Ce20     H14    10.076   1_565     S
Ti21     Ce20    9.948   1_455     S
Ti21     H13    9.974   1_565     S
Ti21     Ce33    9.995   1_565     S
Ti21     H28    9.979   1_455     S
Ti21     S17    10.002   1_455     S
Ti22     H14    9.974   1_565     S
Ti22     Ce34    9.995   1_565     S
Ti22     H27    9.979   .     S
Ti23     Ce12    9.948   1_556     S
Ti23     Ce25    9.995   1_565     S
Ti23     H30    9.979   .     S
Ti23     H15    9.974   1_566     S
Ti23     S18    10.002   1_556     S
Ti24     Ce11    9.948   1_656     S
Ti24     Ce26    9.995   1_565     S
Ti24     H29    9.979   1_655     S
Ti24     H16    9.974   1_566     S
Ti24     S17    10.002   1_556     S
Ce25     H27    9.946   1_545     S
Ce25     Ti38    9.948   1_556     S
Ce25     Ti23    9.995   1_545     S
Ce25     H30    9.977   1_545     S
Ce25     H15    10.018   1_556     S
Ce25     S32    10.081   .     S
Ce25     H29    10.076   1_545     S
Ce26     H28    9.946   1_545     S
Ce26     Ti37    9.948   1_656     S
Ce26     Ti24    9.995   1_545     S
Ce26     H29    9.977   1_645     S
Ce26     H16    10.018   1_556     S
Ce26     S31    10.081   1_655     S
Ce26     H30    10.076   1_545     S
H27     Ce25    9.946   1_565     S
H27     Ti35    9.974   1_565     S
H27     Ce34    9.977   1_565     S
H27     H30    10.1   .     S
H27     Ce33    10.076   1_565     S
H27     S32    9.919   1_565     S
H28     Ce26    9.946   1_565     S
H28     Ti36    9.974   1_565     S
H28     Ce33    9.977   1_665     S
H28     Ti21    9.979   1_655     S
H28     H29    10.1   1_655     S
H28     Ce34    10.076   1_565     S
H28     S31    9.919   1_665     S
H29     Ce33    9.946   1_565     S
H29     Ti24    9.979   1_455     S
H29     Ti37    9.974   1_566     S
H29     Ce26    9.977   1_465     S
H29     Ce11    10.018   1_556     S
H29     H28    10.1   1_455     S
H29     Ce25    10.076   1_565     S
H29     S31    9.919   1_565     S
H30     Ce34    9.946   1_565     S
H30     Ti38    9.974   1_566     S
H30     Ce25    9.977   1_565     S
H30     Ce12    10.018   1_556     S
H30     Ce26    10.076   1_565     S
H30     S32    9.919   1_565     S
S31     Ti37    10.002   1_556     S
S31     Ti36    10.002   1_455     S
S31     V39    10.051   .     S
S31     Ce26    10.081   1_455     S
S31     Ce33    10.081   .     S
S31     H28    9.919   1_445     S
S31     H29    9.919   1_545     S
S32     Ti38    10.002   1_556     S
S32     Ti35    10.002   .     S
S32     V40    10.051   .     S
S32     Ce34    10.081   .     S
S32     H27    9.919   1_545     S
S32     H30    9.919   1_545     S
Ce33     H29    9.946   1_545     S
Ce33     Ti36    9.948   1_455     S
Ce33     H28    9.977   1_445     S
Ce33     Ti21    9.995   1_545     S
Ce33     H27    10.076   1_545     S
Ce34     H30    9.946   1_545     S
Ce34     Ti35    9.948   .     S
Ce34     H27    9.977   1_545     S
Ce34     Ti22    9.995   1_545     S
Ce34     H28    10.076   1_545     S
Ti35     H27    9.974   1_545     S
Ti35     Ce19    9.995   1_545     S
Ti36     Ce33    9.948   1_655     S
Ti36     H28    9.974   1_545     S
Ti36     H13    9.979   1_655     S
Ti36     Ce20    9.995   1_545     S
Ti36     S31    10.002   1_655     S
Ti37     Ce26    9.948   1_454     S
Ti37     H16    9.979   1_455     S
Ti37     Ce11    9.995   1_545     S
Ti37     H29    9.974   1_544     S
Ti37     S31    10.002   1_554     S
Ti38     Ce25    9.948   1_554     S
Ti38     Ce12    9.995   1_545     S
Ti38     H30    9.974   1_544     S
Ti38     S32    10.002   1_554     S
V39     Er8    10.016   1_455     S
