data_zcc
_audit_creation_date              2019-12-31
_audit_creation_method            'Pymatgen'
_symmetry_space_group_name_H-M    'P1'
_symmetry_Int_Tables_number       1
loop_
_symmetry_equiv_pos_as_xyz
  x,y,z
_cell_length_a                    60.5316
_cell_length_b                    60.5316
_cell_length_c                    30.0003
_cell_angle_alpha                 90.0
_cell_angle_beta                 90.0
_cell_angle_gamma                 90.0
loop_
_atom_site_label
_atom_site_type_symbol
_atom_site_fract_x
_atom_site_fract_y
_atom_site_fract_z
V1     V     0.1994   0.8006   0.1667
V2     V     0.1994   0.8006   0.5
V3     V     0.1994   0.8006   0.8333
V4     V     0.3006   0.6994   0.0
V5     V     0.3006   0.6994   0.3333
V6     V     0.3006   0.6994   0.6667
V7     V     0.8006   0.8006   0.1667
V8     V     0.8006   0.8006   0.5
V9     V     0.8006   0.8006   0.8333
V10     V     0.6994   0.6994   0.0
V11     V     0.6994   0.6994   0.3333
V12     V     0.6994   0.6994   0.6667
V13     V     0.8006   0.1994   0.1667
V14     V     0.8006   0.1994   0.5
V15     V     0.8006   0.1994   0.8333
V16     V     0.6994   0.3006   0.0
V17     V     0.6994   0.3006   0.3333
V18     V     0.6994   0.3006   0.6667
Er19     Er     0.4174   0.4174   0.0
Er20     Er     0.4174   0.4174   0.3333
Er21     Er     0.4174   0.4174   0.6667
Er22     Er     0.4174   0.5826   0.0
Er23     Er     0.4174   0.5826   0.3333
Er24     Er     0.4174   0.5826   0.6667
Er25     Er     0.5826   0.4174   0.0
Er26     Er     0.5826   0.4174   0.3333
Er27     Er     0.5826   0.4174   0.6667
Er28     Er     0.5826   0.5826   0.0
Er29     Er     0.5826   0.5826   0.3333
Er30     Er     0.5826   0.5826   0.6667
Er31     Er     0.9174   0.0826   0.1667
Er32     Er     0.9174   0.0826   0.5
Er33     Er     0.9174   0.0826   0.8333
Er34     Er     0.9174   0.9174   0.1667
Er35     Er     0.9174   0.9174   0.5
Er36     Er     0.9174   0.9174   0.8333
Er37     Er     0.0826   0.9174   0.1667
Er38     Er     0.0826   0.9174   0.5
Er39     Er     0.0826   0.9174   0.8333
Er40     Er     0.0826   0.0826   0.1667
Er41     Er     0.0826   0.0826   0.5
Er42     Er     0.0826   0.0826   0.8333
V43     V     0.1994   0.1994   0.1667
V44     V     0.1994   0.1994   0.5
V45     V     0.1994   0.1994   0.8333
V46     V     0.3006   0.3006   0.0
V47     V     0.3006   0.3006   0.3333
V48     V     0.3006   0.3006   0.6667
loop_
_geom_bond_atom_site_label_1
_geom_bond_atom_site_label_2
_geom_bond_distance
_geom_bond_site_symmetry_2
_ccdc_geom_bond_type
V1     V4    10.0   .     S
V1     V3    10.0   1_554     S
V1     V2    10.0   .     S
V1     V5    10.0   .     S
V1     Er37    10.0   .     S
V2     V5    10.0   .     S
V2     V3    10.0   .     S
V2     V6    10.0   .     S
V2     Er38    10.0   .     S
V3     V6    10.0   .     S
V3     V1    10.0   1_556     S
V3     V4    10.0   1_556     S
V3     Er39    10.0   .     S
V4     V3    10.0   1_554     S
V4     V5    10.0   .     S
V4     V6    10.0   1_554     S
V4     Er22    10.0   .     S
V5     V6    10.0   .     S
V5     Er23    10.0   .     S
V6     V4    10.0   1_556     S
V6     Er24    10.0   .     S
V7     V10    10.0   .     S
V7     V9    10.0   1_554     S
V7     V8    10.0   .     S
V7     V11    10.0   .     S
V7     Er34    10.0   .     S
V8     V11    10.0   .     S
V8     V9    10.0   .     S
V8     V12    10.0   .     S
V8     Er35    10.0   .     S
V9     V12    10.0   .     S
V9     V7    10.0   1_556     S
V9     V10    10.0   1_556     S
V9     Er36    10.0   .     S
V10     V9    10.0   1_554     S
V10     V11    10.0   .     S
V10     V12    10.0   1_554     S
V10     Er28    10.0   .     S
V11     V12    10.0   .     S
V11     Er29    10.0   .     S
V12     V10    10.0   1_556     S
V12     Er30    10.0   .     S
V13     V16    10.0   .     S
V13     V15    10.0   1_554     S
V13     V14    10.0   .     S
V13     V17    10.0   .     S
V13     Er31    10.0   .     S
V14     V17    10.0   .     S
V14     V15    10.0   .     S
V14     V18    10.0   .     S
V14     Er32    10.0   .     S
V15     V18    10.0   .     S
V15     V13    10.0   1_556     S
V15     V16    10.0   1_556     S
V15     Er33    10.0   .     S
V16     V15    10.0   1_554     S
V16     V17    10.0   .     S
V16     V18    10.0   1_554     S
V16     Er25    10.0   .     S
V17     V18    10.0   .     S
V17     Er26    10.0   .     S
V18     V16    10.0   1_556     S
V18     Er27    10.0   .     S
Er19     Er22    10.0   .     S
Er19     Er25    10.0   .     S
Er19     V46    10.0   .     S
Er20     Er23    10.0   .     S
Er20     Er26    10.0   .     S
Er20     V47    10.0   .     S
Er21     Er24    10.0   .     S
Er21     Er27    10.0   .     S
Er21     V48    10.0   .     S
Er22     Er28    10.0   .     S
Er23     Er29    10.0   .     S
Er24     Er30    10.0   .     S
Er25     Er28    10.0   .     S
Er26     Er29    10.0   .     S
Er27     Er30    10.0   .     S
Er31     Er40    10.0   1_655     S
Er31     Er34    10.0   1_545     S
Er32     Er41    10.0   1_655     S
Er32     Er35    10.0   1_545     S
Er33     Er42    10.0   1_655     S
Er33     Er36    10.0   1_545     S
Er34     Er37    10.0   1_655     S
Er34     Er31    10.0   1_565     S
Er35     Er38    10.0   1_655     S
Er35     Er32    10.0   1_565     S
Er36     Er39    10.0   1_655     S
Er36     Er33    10.0   1_565     S
Er37     Er34    10.0   1_455     S
Er37     Er40    10.0   1_565     S
Er38     Er35    10.0   1_455     S
Er38     Er41    10.0   1_565     S
Er39     Er36    10.0   1_455     S
Er39     Er42    10.0   1_565     S
Er40     Er31    10.0   1_455     S
Er40     Er37    10.0   1_545     S
Er40     V43    10.0   .     S
Er41     Er32    10.0   1_455     S
Er41     Er38    10.0   1_545     S
Er41     V44    10.0   .     S
Er42     Er33    10.0   1_455     S
Er42     Er39    10.0   1_545     S
Er42     V45    10.0   .     S
V43     V46    10.0   .     S
V43     V45    10.0   1_554     S
V43     V44    10.0   .     S
V43     V47    10.0   .     S
V44     V47    10.0   .     S
V44     V45    10.0   .     S
V44     V48    10.0   .     S
V45     V48    10.0   .     S
V45     V43    10.0   1_556     S
V45     V46    10.0   1_556     S
V46     V45    10.0   1_554     S
V46     V47    10.0   .     S
V46     V48    10.0   1_554     S
V47     V48    10.0   .     S
V48     V46    10.0   1_556     S
