data_zce
_audit_creation_date              2019-12-31
_audit_creation_method            'Pymatgen'
_symmetry_space_group_name_H-M    'P1'
_symmetry_Int_Tables_number       1
loop_
_symmetry_equiv_pos_as_xyz
  x,y,z
_cell_length_a                    34.3124
_cell_length_b                    35.578
_cell_length_c                    22.1384
_cell_angle_alpha                 90.0
_cell_angle_beta                 100.4591
_cell_angle_gamma                 90.0
loop_
_atom_site_label
_atom_site_type_symbol
_atom_site_fract_x
_atom_site_fract_y
_atom_site_fract_z
Ti1     Ti     0.4333   0.4842   0.7799
Ti2     Ti     0.9333   0.4842   0.7799
V3     V     0.1127   0.6593   0.6121
V4     V     0.6127   0.6593   0.6121
Ti5     Ti     0.0667   0.5158   0.2201
Ti6     Ti     0.5667   0.5158   0.2201
V7     V     0.3873   0.3407   0.3879
V8     V     0.8873   0.3407   0.3879
Er9     Er     0.1634   0.382   0.6154
Er10     Er     0.6634   0.382   0.6154
Er11     Er     0.3366   0.618   0.3846
Er12     Er     0.8366   0.618   0.3846
Ti13     Ti     0.1833   0.0158   0.2799
Ti14     Ti     0.6833   0.0158   0.2799
V15     V     0.3627   0.8407   0.1121
V16     V     0.8627   0.8407   0.1121
Ti17     Ti     0.3167   0.9842   0.7201
Ti18     Ti     0.8167   0.9842   0.7201
V19     V     0.1373   0.1593   0.8879
V20     V     0.6373   0.1593   0.8879
Er21     Er     0.4134   0.118   0.1154
Er22     Er     0.9134   0.118   0.1154
Er23     Er     0.0866   0.882   0.8846
Er24     Er     0.5866   0.882   0.8846
loop_
_geom_bond_atom_site_label_1
_geom_bond_atom_site_label_2
_geom_bond_distance
_geom_bond_site_symmetry_2
_ccdc_geom_bond_type
Ti1     Er9    10.001   .     S
Ti1     Er11    9.987   .     S
Ti1     V4    9.939   .     S
Ti1     V7    9.946   .     S
Ti1     Er10    9.964   .     S
Ti1     Ti6    10.048   1_556     S
Ti2     Er10    10.001   .     S
Ti2     Er12    9.987   .     S
Ti2     V3    9.939   1_655     S
Ti2     V8    9.946   .     S
Ti2     Er9    9.964   1_655     S
Ti2     Ti5    10.048   1_656     S
V3     Er12    9.999   1_455     S
V3     Er9    10.016   .     S
V3     Ti2    9.939   1_455     S
V3     Ti5    9.946   .     S
V3     Er11    10.029   .     S
V3     Er23    10.096   .     S
V4     Er11    9.999   .     S
V4     Er10    10.016   .     S
V4     Ti6    9.946   .     S
V4     Er12    10.029   .     S
V4     Er24    10.096   .     S
Ti5     Er11    10.001   .     S
Ti5     Er9    9.987   .     S
Ti5     V8    9.939   1_455     S
Ti5     Er12    9.964   1_455     S
Ti5     Ti2    10.048   1_454     S
Ti6     Er12    10.001   .     S
Ti6     Er10    9.987   .     S
Ti6     V7    9.939   .     S
Ti6     Er11    9.964   .     S
Ti6     Ti1    10.048   1_554     S
V7     Er11    10.016   .     S
V7     Er10    9.999   .     S
V7     Er9    10.029   .     S
V7     Er21    10.096   .     S
V8     Er12    10.016   .     S
V8     Er9    9.999   1_655     S
V8     Ti5    9.939   1_655     S
V8     Er10    10.029   .     S
V8     Er22    10.096   .     S
Er9     V8    9.999   1_455     S
Er9     Ti2    9.964   1_455     S
Er9     V19    10.096   .     S
Er10     V20    10.096   .     S
Er11     V15    10.096   .     S
Er12     V3    9.999   1_655     S
Er12     Ti5    9.964   1_655     S
Er12     V16    10.096   .     S
Ti13     Er22    10.001   1_455     S
Ti13     Er23    9.987   1_544     S
Ti13     V15    9.939   1_545     S
Ti13     V19    9.946   1_554     S
Ti13     Er21    9.964   .     S
Ti13     Ti17    10.048   1_545     S
Ti14     Er21    10.001   .     S
Ti14     Er24    9.987   1_544     S
Ti14     V16    9.939   1_545     S
Ti14     V20    9.946   1_554     S
Ti14     Er22    9.964   .     S
Ti14     Ti18    10.048   1_545     S
V15     Er23    9.999   1_554     S
V15     Er21    10.016   1_565     S
V15     Ti13    9.939   1_565     S
V15     Ti17    9.946   1_554     S
V15     Er24    10.029   1_554     S
V16     Er24    9.999   1_554     S
V16     Er22    10.016   1_565     S
V16     Ti14    9.939   1_565     S
V16     Ti18    9.946   1_554     S
V16     Er23    10.029   1_654     S
Ti17     Er24    10.001   .     S
Ti17     Er21    9.987   1_566     S
Ti17     V15    9.946   1_556     S
Ti17     V19    9.939   1_565     S
Ti17     Er23    9.964   .     S
Ti17     Ti13    10.048   1_565     S
Ti18     Er23    10.001   1_655     S
Ti18     Er22    9.987   1_566     S
Ti18     V16    9.946   1_556     S
Ti18     V20    9.939   1_565     S
Ti18     Er24    9.964   .     S
Ti18     Ti14    10.048   1_565     S
V19     Er23    10.016   1_545     S
V19     Er21    9.999   1_556     S
V19     Ti17    9.939   1_545     S
V19     Ti13    9.946   1_556     S
V19     Er22    10.029   1_456     S
V20     Er24    10.016   1_545     S
V20     Er22    9.999   1_556     S
V20     Ti18    9.939   1_545     S
V20     Ti14    9.946   1_556     S
V20     Er21    10.029   1_556     S
Er21     V19    9.999   1_554     S
Er21     Ti17    9.987   1_544     S
Er21     V15    10.016   1_545     S
Er21     V20    10.029   1_554     S
Er22     Ti13    10.001   1_655     S
Er22     V20    9.999   1_554     S
Er22     Ti18    9.987   1_544     S
Er22     V16    10.016   1_545     S
Er22     V19    10.029   1_654     S
Er23     Ti18    10.001   1_455     S
Er23     V15    9.999   1_556     S
Er23     Ti13    9.987   1_566     S
Er23     V19    10.016   1_565     S
Er23     V16    10.029   1_456     S
Er24     V16    9.999   1_556     S
Er24     Ti14    9.987   1_566     S
Er24     V20    10.016   1_565     S
Er24     V15    10.029   1_556     S
