data_zfa
_audit_creation_date              2019-12-31
_audit_creation_method            'Pymatgen'
_symmetry_space_group_name_H-M    'P1'
_symmetry_Int_Tables_number       1
loop_
_symmetry_equiv_pos_as_xyz
  x,y,z
_cell_length_a                    36.3834
_cell_length_b                    36.3834
_cell_length_c                    27.0503
_cell_angle_alpha                 90.0
_cell_angle_beta                 90.0
_cell_angle_gamma                 90.0
loop_
_atom_site_label
_atom_site_type_symbol
_atom_site_fract_x
_atom_site_fract_y
_atom_site_fract_z
V1     V     0.375   0.1929   0.8268
V2     V     0.375   0.6929   0.8268
V3     V     0.875   0.1929   0.8268
V4     V     0.875   0.6929   0.8268
V5     V     0.3071   0.125   0.1732
V6     V     0.3071   0.625   0.1732
V7     V     0.8071   0.125   0.1732
V8     V     0.8071   0.625   0.1732
V9     V     0.125   0.3071   0.8268
V10     V     0.125   0.8071   0.8268
V11     V     0.625   0.3071   0.8268
V12     V     0.625   0.8071   0.8268
V13     V     0.1929   0.375   0.1732
V14     V     0.1929   0.875   0.1732
V15     V     0.6929   0.375   0.1732
V16     V     0.6929   0.875   0.1732
V17     V     0.375   0.4429   0.6732
V18     V     0.375   0.9429   0.6732
V19     V     0.875   0.4429   0.6732
V20     V     0.875   0.9429   0.6732
V21     V     0.4429   0.375   0.3268
V22     V     0.4429   0.875   0.3268
V23     V     0.9429   0.375   0.3268
V24     V     0.9429   0.875   0.3268
V25     V     0.125   0.0571   0.6732
V26     V     0.125   0.5571   0.6732
V27     V     0.625   0.0571   0.6732
V28     V     0.625   0.5571   0.6732
V29     V     0.0571   0.125   0.3268
V30     V     0.0571   0.625   0.3268
V31     V     0.5571   0.125   0.3268
V32     V     0.5571   0.625   0.3268
loop_
_geom_bond_atom_site_label_1
_geom_bond_atom_site_label_2
_geom_bond_distance
_geom_bond_site_symmetry_2
_ccdc_geom_bond_type
V1     V5    10.0   1_556     S
V1     V11    10.0   .     S
V1     V9    10.0   .     S
V1     V18    10.0   1_545     S
V1     V17    10.0   .     S
V2     V6    10.0   1_556     S
V2     V12    10.0   .     S
V2     V10    10.0   .     S
V2     V17    10.0   .     S
V2     V18    10.0   .     S
V3     V7    10.0   1_556     S
V3     V9    10.0   1_655     S
V3     V11    10.0   .     S
V3     V20    10.0   1_545     S
V3     V19    10.0   .     S
V4     V8    10.0   1_556     S
V4     V10    10.0   1_655     S
V4     V12    10.0   .     S
V4     V19    10.0   .     S
V4     V20    10.0   .     S
V5     V1    10.0   1_554     S
V5     V14    10.0   1_545     S
V5     V13    10.0   .     S
V5     V29    10.0   .     S
V5     V31    10.0   .     S
V6     V2    10.0   1_554     S
V6     V13    10.0   .     S
V6     V14    10.0   .     S
V6     V30    10.0   .     S
V6     V32    10.0   .     S
V7     V3    10.0   1_554     S
V7     V16    10.0   1_545     S
V7     V15    10.0   .     S
V7     V31    10.0   .     S
V7     V29    10.0   1_655     S
V8     V4    10.0   1_554     S
V8     V15    10.0   .     S
V8     V16    10.0   .     S
V8     V32    10.0   .     S
V8     V30    10.0   1_655     S
V9     V3    10.0   1_455     S
V9     V13    10.0   1_556     S
V9     V26    10.0   .     S
V9     V25    10.0   .     S
V10     V4    10.0   1_455     S
V10     V14    10.0   1_556     S
V10     V25    10.0   1_565     S
V10     V26    10.0   .     S
V11     V15    10.0   1_556     S
V11     V28    10.0   .     S
V11     V27    10.0   .     S
V12     V16    10.0   1_556     S
V12     V27    10.0   1_565     S
V12     V28    10.0   .     S
V13     V9    10.0   1_554     S
V13     V21    10.0   .     S
V13     V23    10.0   1_455     S
V14     V10    10.0   1_554     S
V14     V5    10.0   1_565     S
V14     V22    10.0   .     S
V14     V24    10.0   1_455     S
V15     V11    10.0   1_554     S
V15     V23    10.0   .     S
V15     V21    10.0   .     S
V16     V12    10.0   1_554     S
V16     V7    10.0   1_565     S
V16     V24    10.0   .     S
V16     V22    10.0   .     S
V17     V21    10.0   .     S
V17     V28    10.0   .     S
V17     V26    10.0   .     S
V18     V22    10.0   .     S
V18     V27    10.0   1_565     S
V18     V25    10.0   1_565     S
V18     V1    10.0   1_565     S
V19     V23    10.0   .     S
V19     V26    10.0   1_655     S
V19     V28    10.0   .     S
V20     V24    10.0   .     S
V20     V25    10.0   1_665     S
V20     V27    10.0   1_565     S
V20     V3    10.0   1_565     S
V21     V32    10.0   .     S
V21     V31    10.0   .     S
V22     V31    10.0   1_565     S
V22     V32    10.0   .     S
V23     V30    10.0   1_655     S
V23     V29    10.0   1_655     S
V23     V13    10.0   1_655     S
V24     V29    10.0   1_665     S
V24     V30    10.0   1_655     S
V24     V14    10.0   1_655     S
V25     V20    10.0   1_445     S
V25     V29    10.0   .     S
V25     V18    10.0   1_545     S
V25     V10    10.0   1_545     S
V26     V19    10.0   1_455     S
V26     V30    10.0   .     S
V27     V18    10.0   1_545     S
V27     V31    10.0   .     S
V27     V20    10.0   1_545     S
V27     V12    10.0   1_545     S
V28     V32    10.0   .     S
V29     V24    10.0   1_445     S
V29     V23    10.0   1_455     S
V29     V7    10.0   1_455     S
V30     V23    10.0   1_455     S
V30     V24    10.0   1_455     S
V30     V8    10.0   1_455     S
V31     V22    10.0   1_545     S
