data_zfb
_audit_creation_date              2019-12-31
_audit_creation_method            'Pymatgen'
_symmetry_space_group_name_H-M    'P1'
_symmetry_Int_Tables_number       1
loop_
_symmetry_equiv_pos_as_xyz
  x,y,z
_cell_length_a                    39.4166
_cell_length_b                    39.4166
_cell_length_c                    39.4384
_cell_angle_alpha                 90.0
_cell_angle_beta                 90.0
_cell_angle_gamma                 90.0
loop_
_atom_site_label
_atom_site_type_symbol
_atom_site_fract_x
_atom_site_fract_y
_atom_site_fract_z
V1     V     0.4265   0.3534   0.25
V2     V     0.4265   0.3534   0.75
V3     V     0.4265   0.8534   0.25
V4     V     0.4265   0.8534   0.75
V5     V     0.9265   0.3534   0.25
V6     V     0.9265   0.3534   0.75
V7     V     0.9265   0.8534   0.25
V8     V     0.9265   0.8534   0.75
V9     V     0.1765   0.3966   0.25
V10     V     0.1765   0.3966   0.75
V11     V     0.1765   0.8966   0.25
V12     V     0.1765   0.8966   0.75
V13     V     0.6765   0.3966   0.25
V14     V     0.6765   0.3966   0.75
V15     V     0.6765   0.8966   0.25
V16     V     0.6765   0.8966   0.75
V17     V     0.3966   0.3235   0.0
V18     V     0.3966   0.3235   0.5
V19     V     0.3966   0.8235   0.0
V20     V     0.3966   0.8235   0.5
V21     V     0.8966   0.3235   0.0
V22     V     0.8966   0.3235   0.5
V23     V     0.8966   0.8235   0.0
V24     V     0.8966   0.8235   0.5
V25     V     0.3534   0.0735   0.0
V26     V     0.3534   0.0735   0.5
V27     V     0.3534   0.5735   0.0
V28     V     0.3534   0.5735   0.5
V29     V     0.8534   0.0735   0.0
V30     V     0.8534   0.0735   0.5
V31     V     0.8534   0.5735   0.0
V32     V     0.8534   0.5735   0.5
V33     V     0.3235   0.1034   0.25
V34     V     0.3235   0.1034   0.75
V35     V     0.3235   0.6034   0.25
V36     V     0.3235   0.6034   0.75
V37     V     0.8235   0.1034   0.25
V38     V     0.8235   0.1034   0.75
V39     V     0.8235   0.6034   0.25
V40     V     0.8235   0.6034   0.75
V41     V     0.0735   0.1466   0.25
V42     V     0.0735   0.1466   0.75
V43     V     0.0735   0.6466   0.25
V44     V     0.0735   0.6466   0.75
V45     V     0.5735   0.1466   0.25
V46     V     0.5735   0.1466   0.75
V47     V     0.5735   0.6466   0.25
V48     V     0.5735   0.6466   0.75
V49     V     0.1034   0.1765   0.0
V50     V     0.1034   0.1765   0.5
V51     V     0.1034   0.6765   0.0
V52     V     0.1034   0.6765   0.5
V53     V     0.6034   0.1765   0.0
V54     V     0.6034   0.1765   0.5
V55     V     0.6034   0.6765   0.0
V56     V     0.6034   0.6765   0.5
V57     V     0.1466   0.4265   0.0
V58     V     0.1466   0.4265   0.5
V59     V     0.1466   0.9265   0.0
V60     V     0.1466   0.9265   0.5
V61     V     0.6466   0.4265   0.0
V62     V     0.6466   0.4265   0.5
V63     V     0.6466   0.9265   0.0
V64     V     0.6466   0.9265   0.5
loop_
_geom_bond_atom_site_label_1
_geom_bond_atom_site_label_2
_geom_bond_distance
_geom_bond_site_symmetry_2
_ccdc_geom_bond_type
V1     V13    10.0   .     S
V1     V9    10.0   .     S
V1     V17    10.0   .     S
V1     V18    10.0   .     S
V1     V45    10.0   .     S
V2     V14    10.0   .     S
V2     V10    10.0   .     S
V2     V18    10.0   .     S
V2     V17    10.0   1_556     S
V2     V46    10.0   .     S
V3     V15    10.0   .     S
V3     V11    10.0   .     S
V3     V19    10.0   .     S
V3     V20    10.0   .     S
V3     V47    10.0   .     S
V4     V16    10.0   .     S
V4     V12    10.0   .     S
V4     V20    10.0   .     S
V4     V19    10.0   1_556     S
V4     V48    10.0   .     S
V5     V9    10.0   1_655     S
V5     V13    10.0   .     S
V5     V21    10.0   .     S
V5     V22    10.0   .     S
V5     V41    10.0   1_655     S
V6     V10    10.0   1_655     S
V6     V14    10.0   .     S
V6     V22    10.0   .     S
V6     V21    10.0   1_556     S
V6     V42    10.0   1_655     S
V7     V11    10.0   1_655     S
V7     V15    10.0   .     S
V7     V23    10.0   .     S
V7     V24    10.0   .     S
V7     V43    10.0   1_655     S
V8     V12    10.0   1_655     S
V8     V16    10.0   .     S
V8     V24    10.0   .     S
V8     V23    10.0   1_556     S
V8     V44    10.0   1_655     S
V9     V5    10.0   1_455     S
V9     V58    10.0   .     S
V9     V57    10.0   .     S
V9     V35    10.0   .     S
V10     V6    10.0   1_455     S
V10     V57    10.0   1_556     S
V10     V58    10.0   .     S
V10     V36    10.0   .     S
V11     V7    10.0   1_455     S
V11     V60    10.0   .     S
V11     V59    10.0   .     S
V11     V33    10.0   1_565     S
V12     V8    10.0   1_455     S
V12     V59    10.0   1_556     S
V12     V60    10.0   .     S
V12     V34    10.0   1_565     S
V13     V62    10.0   .     S
V13     V61    10.0   .     S
V13     V39    10.0   .     S
V14     V61    10.0   1_556     S
V14     V62    10.0   .     S
V14     V40    10.0   .     S
V15     V64    10.0   .     S
V15     V63    10.0   .     S
V15     V37    10.0   1_565     S
V16     V63    10.0   1_556     S
V16     V64    10.0   .     S
V16     V38    10.0   1_565     S
V17     V25    10.0   .     S
V17     V27    10.0   .     S
V17     V2    10.0   1_554     S
V17     V53    10.0   .     S
V18     V26    10.0   .     S
V18     V28    10.0   .     S
V18     V54    10.0   .     S
V19     V27    10.0   .     S
V19     V25    10.0   1_565     S
V19     V4    10.0   1_554     S
V19     V55    10.0   .     S
V20     V28    10.0   .     S
V20     V26    10.0   1_565     S
V20     V56    10.0   .     S
V21     V29    10.0   .     S
V21     V31    10.0   .     S
V21     V6    10.0   1_554     S
V21     V49    10.0   1_655     S
V22     V30    10.0   .     S
V22     V32    10.0   .     S
V22     V50    10.0   1_655     S
V23     V31    10.0   .     S
V23     V29    10.0   1_565     S
V23     V8    10.0   1_554     S
V23     V51    10.0   1_655     S
V24     V32    10.0   .     S
V24     V30    10.0   1_565     S
V24     V52    10.0   1_655     S
V25     V19    10.0   1_545     S
V25     V34    10.0   1_554     S
V25     V33    10.0   .     S
V25     V59    10.0   1_545     S
V26     V20    10.0   1_545     S
V26     V33    10.0   .     S
V26     V34    10.0   .     S
V26     V60    10.0   1_545     S
V27     V36    10.0   1_554     S
V27     V35    10.0   .     S
V27     V57    10.0   .     S
V28     V35    10.0   .     S
V28     V36    10.0   .     S
V28     V58    10.0   .     S
V29     V23    10.0   1_545     S
V29     V38    10.0   1_554     S
V29     V37    10.0   .     S
V29     V63    10.0   1_545     S
V30     V24    10.0   1_545     S
V30     V37    10.0   .     S
V30     V38    10.0   .     S
V30     V64    10.0   1_545     S
V31     V40    10.0   1_554     S
V31     V39    10.0   .     S
V31     V61    10.0   .     S
V32     V39    10.0   .     S
V32     V40    10.0   .     S
V32     V62    10.0   .     S
V33     V41    10.0   .     S
V33     V45    10.0   .     S
V33     V11    10.0   1_545     S
V34     V42    10.0   .     S
V34     V46    10.0   .     S
V34     V25    10.0   1_556     S
V34     V12    10.0   1_545     S
V35     V43    10.0   .     S
V35     V47    10.0   .     S
V36     V44    10.0   .     S
V36     V48    10.0   .     S
V36     V27    10.0   1_556     S
V37     V45    10.0   .     S
V37     V41    10.0   1_655     S
V37     V15    10.0   1_545     S
V38     V46    10.0   .     S
V38     V42    10.0   1_655     S
V38     V29    10.0   1_556     S
V38     V16    10.0   1_545     S
V39     V47    10.0   .     S
V39     V43    10.0   1_655     S
V40     V48    10.0   .     S
V40     V44    10.0   1_655     S
V40     V31    10.0   1_556     S
V41     V37    10.0   1_455     S
V41     V49    10.0   .     S
V41     V50    10.0   .     S
V41     V5    10.0   1_455     S
V42     V38    10.0   1_455     S
V42     V50    10.0   .     S
V42     V49    10.0   1_556     S
V42     V6    10.0   1_455     S
V43     V39    10.0   1_455     S
V43     V51    10.0   .     S
V43     V52    10.0   .     S
V43     V7    10.0   1_455     S
V44     V40    10.0   1_455     S
V44     V52    10.0   .     S
V44     V51    10.0   1_556     S
V44     V8    10.0   1_455     S
V45     V53    10.0   .     S
V45     V54    10.0   .     S
V46     V54    10.0   .     S
V46     V53    10.0   1_556     S
V47     V55    10.0   .     S
V47     V56    10.0   .     S
V48     V56    10.0   .     S
V48     V55    10.0   1_556     S
V49     V59    10.0   1_545     S
V49     V57    10.0   .     S
V49     V42    10.0   1_554     S
V49     V21    10.0   1_455     S
V50     V60    10.0   1_545     S
V50     V58    10.0   .     S
V50     V22    10.0   1_455     S
V51     V57    10.0   .     S
V51     V59    10.0   .     S
V51     V44    10.0   1_554     S
V51     V23    10.0   1_455     S
V52     V58    10.0   .     S
V52     V60    10.0   .     S
V52     V24    10.0   1_455     S
V53     V63    10.0   1_545     S
V53     V61    10.0   .     S
V53     V46    10.0   1_554     S
V54     V64    10.0   1_545     S
V54     V62    10.0   .     S
V55     V61    10.0   .     S
V55     V63    10.0   .     S
V55     V48    10.0   1_554     S
V56     V62    10.0   .     S
V56     V64    10.0   .     S
V57     V10    10.0   1_554     S
V59     V49    10.0   1_565     S
V59     V12    10.0   1_554     S
V59     V25    10.0   1_565     S
V60     V50    10.0   1_565     S
V60     V26    10.0   1_565     S
V61     V14    10.0   1_554     S
V63     V53    10.0   1_565     S
V63     V16    10.0   1_554     S
V63     V29    10.0   1_565     S
V64     V54    10.0   1_565     S
V64     V30    10.0   1_565     S
