data_zfc
_audit_creation_date              2019-12-31
_audit_creation_method            'Pymatgen'
_symmetry_space_group_name_H-M    'P1'
_symmetry_Int_Tables_number       1
loop_
_symmetry_equiv_pos_as_xyz
  x,y,z
_cell_length_a                    47.0035
_cell_length_b                    47.0035
_cell_length_c                    30.0
_cell_angle_alpha                 90.0
_cell_angle_beta                 90.0
_cell_angle_gamma                 90.0
loop_
_atom_site_label
_atom_site_type_symbol
_atom_site_fract_x
_atom_site_fract_y
_atom_site_fract_z
V1     V     0.7538   0.3949   0.1412
V2     V     0.7538   0.3949   0.4745
V3     V     0.7538   0.3949   0.8079
V4     V     0.8949   0.2538   0.0255
V5     V     0.8949   0.2538   0.3588
V6     V     0.8949   0.2538   0.6921
V7     V     0.6051   0.2462   0.1921
V8     V     0.6051   0.2462   0.5255
V9     V     0.6051   0.2462   0.8588
V10     V     0.7462   0.1051   0.3079
V11     V     0.7462   0.1051   0.6412
V12     V     0.7462   0.1051   0.9745
V13     V     0.7538   0.6051   0.1921
V14     V     0.7538   0.6051   0.5255
V15     V     0.7538   0.6051   0.8588
V16     V     0.8949   0.7462   0.3079
V17     V     0.8949   0.7462   0.6412
V18     V     0.8949   0.7462   0.9745
V19     V     0.6051   0.7538   0.1412
V20     V     0.6051   0.7538   0.4745
V21     V     0.6051   0.7538   0.8079
V22     V     0.7462   0.8949   0.0255
V23     V     0.7462   0.8949   0.3588
V24     V     0.7462   0.8949   0.6921
V25     V     0.2462   0.3949   0.1921
V26     V     0.2462   0.3949   0.5255
V27     V     0.2462   0.3949   0.8588
V28     V     0.1051   0.2538   0.3079
V29     V     0.1051   0.2538   0.6412
V30     V     0.1051   0.2538   0.9745
V31     V     0.3949   0.2462   0.1412
V32     V     0.3949   0.2462   0.4745
V33     V     0.3949   0.2462   0.8079
V34     V     0.2538   0.1051   0.0255
V35     V     0.2538   0.1051   0.3588
V36     V     0.2538   0.1051   0.6921
V37     V     0.3949   0.7538   0.1921
V38     V     0.3949   0.7538   0.5255
V39     V     0.3949   0.7538   0.8588
V40     V     0.2538   0.8949   0.3079
V41     V     0.2538   0.8949   0.6412
V42     V     0.2538   0.8949   0.9745
V43     V     0.2462   0.6051   0.1412
V44     V     0.2462   0.6051   0.4745
V45     V     0.2462   0.6051   0.8079
V46     V     0.1051   0.7462   0.0255
V47     V     0.1051   0.7462   0.3588
V48     V     0.1051   0.7462   0.6921
loop_
_geom_bond_atom_site_label_1
_geom_bond_atom_site_label_2
_geom_bond_distance
_geom_bond_site_symmetry_2
_ccdc_geom_bond_type
V1     V4    10.0   .     S
V1     V7    10.0   .     S
V1     V2    10.0   .     S
V1     V3    10.0   1_554     S
V1     V13    10.0   .     S
V2     V5    10.0   .     S
V2     V8    10.0   .     S
V2     V3    10.0   .     S
V2     V14    10.0   .     S
V3     V6    10.0   .     S
V3     V9    10.0   .     S
V3     V1    10.0   1_556     S
V3     V15    10.0   .     S
V4     V12    10.0   1_554     S
V4     V5    10.0   .     S
V4     V6    10.0   1_554     S
V4     V30    10.0   1_654     S
V5     V10    10.0   .     S
V5     V6    10.0   .     S
V5     V28    10.0   1_655     S
V6     V11    10.0   .     S
V6     V4    10.0   1_556     S
V6     V29    10.0   1_655     S
V7     V10    10.0   .     S
V7     V9    10.0   1_554     S
V7     V8    10.0   .     S
V7     V31    10.0   .     S
V8     V11    10.0   .     S
V8     V9    10.0   .     S
V8     V32    10.0   .     S
V9     V12    10.0   .     S
V9     V7    10.0   1_556     S
V9     V33    10.0   .     S
V10     V12    10.0   1_554     S
V10     V11    10.0   .     S
V10     V23    10.0   1_545     S
V11     V12    10.0   .     S
V11     V24    10.0   1_545     S
V12     V4    10.0   1_556     S
V12     V10    10.0   1_556     S
V12     V22    10.0   1_546     S
V13     V16    10.0   .     S
V13     V19    10.0   .     S
V13     V15    10.0   1_554     S
V13     V14    10.0   .     S
V14     V17    10.0   .     S
V14     V20    10.0   .     S
V14     V15    10.0   .     S
V15     V18    10.0   .     S
V15     V21    10.0   .     S
V15     V13    10.0   1_556     S
V16     V23    10.0   .     S
V16     V18    10.0   1_554     S
V16     V17    10.0   .     S
V16     V47    10.0   1_655     S
V17     V24    10.0   .     S
V17     V18    10.0   .     S
V17     V48    10.0   1_655     S
V18     V22    10.0   1_556     S
V18     V16    10.0   1_556     S
V18     V46    10.0   1_656     S
V19     V22    10.0   .     S
V19     V20    10.0   .     S
V19     V21    10.0   1_554     S
V19     V37    10.0   .     S
V20     V23    10.0   .     S
V20     V21    10.0   .     S
V20     V38    10.0   .     S
V21     V24    10.0   .     S
V21     V19    10.0   1_556     S
V21     V39    10.0   .     S
V22     V18    10.0   1_554     S
V22     V23    10.0   .     S
V22     V24    10.0   1_554     S
V22     V12    10.0   1_564     S
V23     V24    10.0   .     S
V23     V10    10.0   1_565     S
V24     V22    10.0   1_556     S
V24     V11    10.0   1_565     S
V25     V28    10.0   .     S
V25     V31    10.0   .     S
V25     V27    10.0   1_554     S
V25     V26    10.0   .     S
V25     V43    10.0   .     S
V26     V29    10.0   .     S
V26     V32    10.0   .     S
V26     V27    10.0   .     S
V26     V44    10.0   .     S
V27     V30    10.0   .     S
V27     V33    10.0   .     S
V27     V25    10.0   1_556     S
V27     V45    10.0   .     S
V28     V5    10.0   1_455     S
V28     V35    10.0   .     S
V28     V30    10.0   1_554     S
V28     V29    10.0   .     S
V29     V6    10.0   1_455     S
V29     V36    10.0   .     S
V29     V30    10.0   .     S
V30     V4    10.0   1_456     S
V30     V34    10.0   1_556     S
V30     V28    10.0   1_556     S
V31     V34    10.0   .     S
V31     V32    10.0   .     S
V31     V33    10.0   1_554     S
V32     V35    10.0   .     S
V32     V33    10.0   .     S
V33     V36    10.0   .     S
V33     V31    10.0   1_556     S
V34     V30    10.0   1_554     S
V34     V35    10.0   .     S
V34     V36    10.0   1_554     S
V34     V42    10.0   1_544     S
V35     V36    10.0   .     S
V35     V40    10.0   1_545     S
V36     V34    10.0   1_556     S
V36     V41    10.0   1_545     S
V37     V40    10.0   .     S
V37     V43    10.0   .     S
V37     V39    10.0   1_554     S
V37     V38    10.0   .     S
V38     V41    10.0   .     S
V38     V44    10.0   .     S
V38     V39    10.0   .     S
V39     V42    10.0   .     S
V39     V45    10.0   .     S
V39     V37    10.0   1_556     S
V40     V47    10.0   .     S
V40     V42    10.0   1_554     S
V40     V41    10.0   .     S
V40     V35    10.0   1_565     S
V41     V48    10.0   .     S
V41     V42    10.0   .     S
V41     V36    10.0   1_565     S
V42     V46    10.0   1_556     S
V42     V40    10.0   1_556     S
V42     V34    10.0   1_566     S
V43     V46    10.0   .     S
V43     V44    10.0   .     S
V43     V45    10.0   1_554     S
V44     V47    10.0   .     S
V44     V45    10.0   .     S
V45     V48    10.0   .     S
V45     V43    10.0   1_556     S
V46     V18    10.0   1_454     S
V46     V42    10.0   1_554     S
V46     V47    10.0   .     S
V46     V48    10.0   1_554     S
V47     V16    10.0   1_455     S
V47     V48    10.0   .     S
V48     V17    10.0   1_455     S
V48     V46    10.0   1_556     S
