data_zfj
_audit_creation_date              2019-12-31
_audit_creation_method            'Pymatgen'
_symmetry_space_group_name_H-M    'P1'
_symmetry_Int_Tables_number       1
loop_
_symmetry_equiv_pos_as_xyz
  x,y,z
_cell_length_a                    39.97
_cell_length_b                    39.97
_cell_length_c                    36.079
_cell_angle_alpha                 90.0
_cell_angle_beta                 90.0
_cell_angle_gamma                 90.0
loop_
_atom_site_label
_atom_site_type_symbol
_atom_site_fract_x
_atom_site_fract_y
_atom_site_fract_z
V1     V     0.0048   0.4098   0.1331
V2     V     0.0048   0.9098   0.1331
V3     V     0.5048   0.4098   0.1331
V4     V     0.5048   0.9098   0.1331
V5     V     0.0048   0.3402   0.8669
V6     V     0.0048   0.8402   0.8669
V7     V     0.5048   0.3402   0.8669
V8     V     0.5048   0.8402   0.8669
V9     V     0.4952   0.1598   0.1331
V10     V     0.4952   0.6598   0.1331
V11     V     0.9952   0.1598   0.1331
V12     V     0.9952   0.6598   0.1331
V13     V     0.4952   0.0902   0.8669
V14     V     0.4952   0.5902   0.8669
V15     V     0.9952   0.0902   0.8669
V16     V     0.9952   0.5902   0.8669
V17     V     0.1598   0.2548   0.6331
V18     V     0.1598   0.7548   0.6331
V19     V     0.6598   0.2548   0.6331
V20     V     0.6598   0.7548   0.6331
V21     V     0.0902   0.2548   0.3669
V22     V     0.0902   0.7548   0.3669
V23     V     0.5902   0.2548   0.3669
V24     V     0.5902   0.7548   0.3669
V25     V     0.3402   0.2452   0.3669
V26     V     0.3402   0.7452   0.3669
V27     V     0.8402   0.2452   0.3669
V28     V     0.8402   0.7452   0.3669
V29     V     0.4098   0.2452   0.6331
V30     V     0.4098   0.7452   0.6331
V31     V     0.9098   0.2452   0.6331
V32     V     0.9098   0.7452   0.6331
V33     V     0.3402   0.0048   0.6331
V34     V     0.3402   0.5048   0.6331
V35     V     0.8402   0.0048   0.6331
V36     V     0.8402   0.5048   0.6331
V37     V     0.4098   0.0048   0.3669
V38     V     0.4098   0.5048   0.3669
V39     V     0.9098   0.0048   0.3669
V40     V     0.9098   0.5048   0.3669
V41     V     0.1598   0.4952   0.3669
V42     V     0.1598   0.9952   0.3669
V43     V     0.6598   0.4952   0.3669
V44     V     0.6598   0.9952   0.3669
V45     V     0.0902   0.4952   0.6331
V46     V     0.0902   0.9952   0.6331
V47     V     0.5902   0.4952   0.6331
V48     V     0.5902   0.9952   0.6331
V49     V     0.2452   0.3402   0.1331
V50     V     0.2452   0.8402   0.1331
V51     V     0.7452   0.3402   0.1331
V52     V     0.7452   0.8402   0.1331
V53     V     0.2452   0.4098   0.8669
V54     V     0.2452   0.9098   0.8669
V55     V     0.7452   0.4098   0.8669
V56     V     0.7452   0.9098   0.8669
V57     V     0.2548   0.0902   0.1331
V58     V     0.2548   0.5902   0.1331
V59     V     0.7548   0.0902   0.1331
V60     V     0.7548   0.5902   0.1331
V61     V     0.2548   0.1598   0.8669
V62     V     0.2548   0.6598   0.8669
V63     V     0.7548   0.1598   0.8669
V64     V     0.7548   0.6598   0.8669
loop_
_geom_bond_atom_site_label_1
_geom_bond_atom_site_label_2
_geom_bond_distance
_geom_bond_site_symmetry_2
_ccdc_geom_bond_type
V1     V5    10.0   1_554     S
V1     V11    10.0   1_455     S
V1     V12    10.0   1_455     S
V1     V40    10.0   1_455     S
V1     V49    10.0   .     S
V2     V6    10.0   1_554     S
V2     V12    10.0   1_455     S
V2     V11    10.0   1_465     S
V2     V39    10.0   1_465     S
V2     V50    10.0   .     S
V3     V7    10.0   1_554     S
V3     V9    10.0   .     S
V3     V10    10.0   .     S
V3     V38    10.0   .     S
V3     V51    10.0   .     S
V4     V8    10.0   1_554     S
V4     V10    10.0   .     S
V4     V9    10.0   1_565     S
V4     V37    10.0   1_565     S
V4     V52    10.0   .     S
V5     V1    10.0   1_556     S
V5     V16    10.0   1_455     S
V5     V15    10.0   1_455     S
V5     V31    10.0   1_455     S
V5     V53    10.0   .     S
V6     V2    10.0   1_556     S
V6     V15    10.0   1_465     S
V6     V16    10.0   1_455     S
V6     V32    10.0   1_455     S
V6     V54    10.0   .     S
V7     V3    10.0   1_556     S
V7     V14    10.0   .     S
V7     V13    10.0   .     S
V7     V29    10.0   .     S
V7     V55    10.0   .     S
V8     V4    10.0   1_556     S
V8     V13    10.0   1_565     S
V8     V14    10.0   .     S
V8     V30    10.0   .     S
V8     V56    10.0   .     S
V9     V13    10.0   1_554     S
V9     V4    10.0   1_545     S
V9     V23    10.0   .     S
V9     V57    10.0   .     S
V10     V14    10.0   1_554     S
V10     V24    10.0   .     S
V10     V58    10.0   .     S
V11     V15    10.0   1_554     S
V11     V1    10.0   1_655     S
V11     V2    10.0   1_645     S
V11     V21    10.0   1_655     S
V11     V59    10.0   .     S
V12     V16    10.0   1_554     S
V12     V2    10.0   1_655     S
V12     V1    10.0   1_655     S
V12     V22    10.0   1_655     S
V12     V60    10.0   .     S
V13     V9    10.0   1_556     S
V13     V8    10.0   1_545     S
V13     V48    10.0   1_545     S
V13     V61    10.0   .     S
V14     V10    10.0   1_556     S
V14     V47    10.0   .     S
V14     V62    10.0   .     S
V15     V11    10.0   1_556     S
V15     V6    10.0   1_645     S
V15     V5    10.0   1_655     S
V15     V46    10.0   1_645     S
V15     V63    10.0   .     S
V16     V12    10.0   1_556     S
V16     V5    10.0   1_655     S
V16     V6    10.0   1_655     S
V16     V45    10.0   1_655     S
V16     V64    10.0   .     S
V17     V21    10.0   .     S
V17     V29    10.0   .     S
V17     V31    10.0   1_455     S
V17     V61    10.0   .     S
V17     V45    10.0   .     S
V18     V22    10.0   .     S
V18     V30    10.0   .     S
V18     V32    10.0   1_455     S
V18     V62    10.0   .     S
V18     V46    10.0   .     S
V19     V23    10.0   .     S
V19     V31    10.0   .     S
V19     V29    10.0   .     S
V19     V63    10.0   .     S
V19     V47    10.0   .     S
V20     V24    10.0   .     S
V20     V32    10.0   .     S
V20     V30    10.0   .     S
V20     V64    10.0   .     S
V20     V48    10.0   .     S
V21     V27    10.0   1_455     S
V21     V25    10.0   .     S
V21     V11    10.0   1_455     S
V21     V41    10.0   .     S
V22     V28    10.0   1_455     S
V22     V26    10.0   .     S
V22     V12    10.0   1_455     S
V22     V42    10.0   .     S
V23     V25    10.0   .     S
V23     V27    10.0   .     S
V23     V43    10.0   .     S
V24     V26    10.0   .     S
V24     V28    10.0   .     S
V24     V44    10.0   .     S
V25     V29    10.0   .     S
V25     V49    10.0   .     S
V25     V37    10.0   .     S
V26     V30    10.0   .     S
V26     V50    10.0   .     S
V26     V38    10.0   .     S
V27     V31    10.0   .     S
V27     V21    10.0   1_655     S
V27     V51    10.0   .     S
V27     V39    10.0   .     S
V28     V32    10.0   .     S
V28     V22    10.0   1_655     S
V28     V52    10.0   .     S
V28     V40    10.0   .     S
V29     V33    10.0   .     S
V30     V34    10.0   .     S
V31     V17    10.0   1_655     S
V31     V5    10.0   1_655     S
V31     V35    10.0   .     S
V32     V18    10.0   1_655     S
V32     V6    10.0   1_655     S
V32     V36    10.0   .     S
V33     V37    10.0   .     S
V33     V48    10.0   1_545     S
V33     V46    10.0   1_545     S
V33     V54    10.0   1_545     S
V34     V38    10.0   .     S
V34     V47    10.0   .     S
V34     V45    10.0   .     S
V34     V53    10.0   .     S
V35     V39    10.0   .     S
V35     V46    10.0   1_645     S
V35     V48    10.0   1_545     S
V35     V56    10.0   1_545     S
V36     V40    10.0   .     S
V36     V45    10.0   1_655     S
V36     V47    10.0   .     S
V36     V55    10.0   .     S
V37     V42    10.0   1_545     S
V37     V44    10.0   1_545     S
V37     V4    10.0   1_545     S
V38     V41    10.0   .     S
V38     V43    10.0   .     S
V39     V44    10.0   1_545     S
V39     V42    10.0   1_645     S
V39     V2    10.0   1_645     S
V40     V43    10.0   .     S
V40     V41    10.0   1_655     S
V40     V1    10.0   1_655     S
V41     V45    10.0   .     S
V41     V40    10.0   1_455     S
V41     V58    10.0   .     S
V42     V46    10.0   .     S
V42     V37    10.0   1_565     S
V42     V39    10.0   1_465     S
V42     V57    10.0   1_565     S
V43     V47    10.0   .     S
V43     V60    10.0   .     S
V44     V48    10.0   .     S
V44     V39    10.0   1_565     S
V44     V37    10.0   1_565     S
V44     V59    10.0   1_565     S
V45     V36    10.0   1_455     S
V45     V16    10.0   1_455     S
V46     V35    10.0   1_465     S
V46     V33    10.0   1_565     S
V46     V15    10.0   1_465     S
V48     V33    10.0   1_565     S
V48     V35    10.0   1_565     S
V48     V13    10.0   1_565     S
V49     V53    10.0   1_554     S
V49     V58    10.0   .     S
V49     V57    10.0   .     S
V50     V54    10.0   1_554     S
V50     V57    10.0   1_565     S
V50     V58    10.0   .     S
V51     V55    10.0   1_554     S
V51     V60    10.0   .     S
V51     V59    10.0   .     S
V52     V56    10.0   1_554     S
V52     V59    10.0   1_565     S
V52     V60    10.0   .     S
V53     V49    10.0   1_556     S
V53     V61    10.0   .     S
V53     V62    10.0   .     S
V54     V33    10.0   1_565     S
V54     V50    10.0   1_556     S
V54     V62    10.0   .     S
V54     V61    10.0   1_565     S
V55     V51    10.0   1_556     S
V55     V63    10.0   .     S
V55     V64    10.0   .     S
V56     V35    10.0   1_565     S
V56     V52    10.0   1_556     S
V56     V64    10.0   .     S
V56     V63    10.0   1_565     S
V57     V61    10.0   1_554     S
V57     V50    10.0   1_545     S
V57     V42    10.0   1_545     S
V58     V62    10.0   1_554     S
V59     V63    10.0   1_554     S
V59     V52    10.0   1_545     S
V59     V44    10.0   1_545     S
V60     V64    10.0   1_554     S
V61     V57    10.0   1_556     S
V61     V54    10.0   1_545     S
V62     V58    10.0   1_556     S
V63     V59    10.0   1_556     S
V63     V56    10.0   1_545     S
V64     V60    10.0   1_556     S
