data_zfk
_audit_creation_date              2019-12-31
_audit_creation_method            'Pymatgen'
_symmetry_space_group_name_H-M    'P1'
_symmetry_Int_Tables_number       1
loop_
_symmetry_equiv_pos_as_xyz
  x,y,z
_cell_length_a                    39.9334
_cell_length_b                    39.9334
_cell_length_c                    36.9154
_cell_angle_alpha                 90.0
_cell_angle_beta                 90.0
_cell_angle_gamma                 90.0
loop_
_atom_site_label
_atom_site_type_symbol
_atom_site_fract_x
_atom_site_fract_y
_atom_site_fract_z
V1     V     0.4175   0.4928   0.3726
V2     V     0.4175   0.9928   0.3726
V3     V     0.9175   0.4928   0.3726
V4     V     0.9175   0.9928   0.3726
V5     V     0.4928   0.4175   0.1274
V6     V     0.4928   0.9175   0.1274
V7     V     0.9928   0.4175   0.1274
V8     V     0.9928   0.9175   0.1274
V9     V     0.3325   0.2572   0.3726
V10     V     0.3325   0.7572   0.3726
V11     V     0.8325   0.2572   0.3726
V12     V     0.8325   0.7572   0.3726
V13     V     0.2572   0.3325   0.1274
V14     V     0.2572   0.8325   0.1274
V15     V     0.7572   0.3325   0.1274
V16     V     0.7572   0.8325   0.1274
V17     V     0.1675   0.0072   0.3726
V18     V     0.1675   0.5072   0.3726
V19     V     0.6675   0.0072   0.3726
V20     V     0.6675   0.5072   0.3726
V21     V     0.2428   0.0825   0.1274
V22     V     0.2428   0.5825   0.1274
V23     V     0.7428   0.0825   0.1274
V24     V     0.7428   0.5825   0.1274
V25     V     0.0825   0.2428   0.3726
V26     V     0.0825   0.7428   0.3726
V27     V     0.5825   0.2428   0.3726
V28     V     0.5825   0.7428   0.3726
V29     V     0.0072   0.1675   0.1274
V30     V     0.0072   0.6675   0.1274
V31     V     0.5072   0.1675   0.1274
V32     V     0.5072   0.6675   0.1274
V33     V     0.4175   0.2572   0.6274
V34     V     0.4175   0.7572   0.6274
V35     V     0.9175   0.2572   0.6274
V36     V     0.9175   0.7572   0.6274
V37     V     0.4928   0.3325   0.8726
V38     V     0.4928   0.8325   0.8726
V39     V     0.9928   0.3325   0.8726
V40     V     0.9928   0.8325   0.8726
V41     V     0.3325   0.4928   0.6274
V42     V     0.3325   0.9928   0.6274
V43     V     0.8325   0.4928   0.6274
V44     V     0.8325   0.9928   0.6274
V45     V     0.2572   0.4175   0.8726
V46     V     0.2572   0.9175   0.8726
V47     V     0.7572   0.4175   0.8726
V48     V     0.7572   0.9175   0.8726
V49     V     0.1675   0.2428   0.6274
V50     V     0.1675   0.7428   0.6274
V51     V     0.6675   0.2428   0.6274
V52     V     0.6675   0.7428   0.6274
V53     V     0.2428   0.1675   0.8726
V54     V     0.2428   0.6675   0.8726
V55     V     0.7428   0.1675   0.8726
V56     V     0.7428   0.6675   0.8726
V57     V     0.0825   0.0072   0.6274
V58     V     0.0825   0.5072   0.6274
V59     V     0.5825   0.0072   0.6274
V60     V     0.5825   0.5072   0.6274
V61     V     0.0072   0.0825   0.8726
V62     V     0.0072   0.5825   0.8726
V63     V     0.5072   0.0825   0.8726
V64     V     0.5072   0.5825   0.8726
loop_
_geom_bond_atom_site_label_1
_geom_bond_atom_site_label_2
_geom_bond_distance
_geom_bond_site_symmetry_2
_ccdc_geom_bond_type
V1     V5    10.0   .     S
V1     V9    10.0   .     S
V1     V18    10.0   .     S
V1     V20    10.0   .     S
V1     V41    10.0   .     S
V2     V6    10.0   .     S
V2     V10    10.0   .     S
V2     V17    10.0   1_565     S
V2     V19    10.0   1_565     S
V2     V42    10.0   .     S
V3     V7    10.0   .     S
V3     V11    10.0   .     S
V3     V20    10.0   .     S
V3     V18    10.0   1_655     S
V3     V43    10.0   .     S
V4     V8    10.0   .     S
V4     V12    10.0   .     S
V4     V19    10.0   1_565     S
V4     V17    10.0   1_665     S
V4     V44    10.0   .     S
V5     V13    10.0   .     S
V5     V31    10.0   .     S
V5     V32    10.0   .     S
V5     V37    10.0   1_554     S
V6     V14    10.0   .     S
V6     V32    10.0   .     S
V6     V31    10.0   1_565     S
V6     V38    10.0   1_554     S
V7     V15    10.0   .     S
V7     V29    10.0   1_655     S
V7     V30    10.0   1_655     S
V7     V39    10.0   1_554     S
V8     V16    10.0   .     S
V8     V30    10.0   1_655     S
V8     V29    10.0   1_665     S
V8     V40    10.0   1_554     S
V9     V13    10.0   .     S
V9     V27    10.0   .     S
V9     V25    10.0   .     S
V9     V33    10.0   .     S
V10     V14    10.0   .     S
V10     V28    10.0   .     S
V10     V26    10.0   .     S
V10     V34    10.0   .     S
V11     V15    10.0   .     S
V11     V25    10.0   1_655     S
V11     V27    10.0   .     S
V11     V35    10.0   .     S
V12     V16    10.0   .     S
V12     V26    10.0   1_655     S
V12     V28    10.0   .     S
V12     V36    10.0   .     S
V13     V22    10.0   .     S
V13     V21    10.0   .     S
V13     V45    10.0   1_554     S
V14     V21    10.0   1_565     S
V14     V22    10.0   .     S
V14     V46    10.0   1_554     S
V15     V24    10.0   .     S
V15     V23    10.0   .     S
V15     V47    10.0   1_554     S
V16     V23    10.0   1_565     S
V16     V24    10.0   .     S
V16     V48    10.0   1_554     S
V17     V2    10.0   1_545     S
V17     V21    10.0   .     S
V17     V25    10.0   .     S
V17     V4    10.0   1_445     S
V17     V57    10.0   .     S
V18     V22    10.0   .     S
V18     V26    10.0   .     S
V18     V3    10.0   1_455     S
V18     V58    10.0   .     S
V19     V4    10.0   1_545     S
V19     V23    10.0   .     S
V19     V27    10.0   .     S
V19     V2    10.0   1_545     S
V19     V59    10.0   .     S
V20     V24    10.0   .     S
V20     V28    10.0   .     S
V20     V60    10.0   .     S
V21     V14    10.0   1_545     S
V21     V29    10.0   .     S
V21     V53    10.0   1_554     S
V22     V30    10.0   .     S
V22     V54    10.0   1_554     S
V23     V16    10.0   1_545     S
V23     V31    10.0   .     S
V23     V55    10.0   1_554     S
V24     V32    10.0   .     S
V24     V56    10.0   1_554     S
V25     V11    10.0   1_455     S
V25     V29    10.0   .     S
V25     V49    10.0   .     S
V26     V12    10.0   1_455     S
V26     V30    10.0   .     S
V26     V50    10.0   .     S
V27     V31    10.0   .     S
V27     V51    10.0   .     S
V28     V32    10.0   .     S
V28     V52    10.0   .     S
V29     V7    10.0   1_455     S
V29     V8    10.0   1_445     S
V29     V61    10.0   1_554     S
V30     V8    10.0   1_455     S
V30     V7    10.0   1_455     S
V30     V62    10.0   1_554     S
V31     V6    10.0   1_545     S
V31     V63    10.0   1_554     S
V32     V64    10.0   1_554     S
V33     V37    10.0   .     S
V33     V41    10.0   .     S
V33     V49    10.0   .     S
V33     V51    10.0   .     S
V34     V38    10.0   .     S
V34     V42    10.0   .     S
V34     V50    10.0   .     S
V34     V52    10.0   .     S
V35     V39    10.0   .     S
V35     V43    10.0   .     S
V35     V51    10.0   .     S
V35     V49    10.0   1_655     S
V36     V40    10.0   .     S
V36     V44    10.0   .     S
V36     V52    10.0   .     S
V36     V50    10.0   1_655     S
V37     V45    10.0   .     S
V37     V64    10.0   .     S
V37     V63    10.0   .     S
V37     V5    10.0   1_556     S
V38     V46    10.0   .     S
V38     V63    10.0   1_565     S
V38     V64    10.0   .     S
V38     V6    10.0   1_556     S
V39     V47    10.0   .     S
V39     V62    10.0   1_655     S
V39     V61    10.0   1_655     S
V39     V7    10.0   1_556     S
V40     V48    10.0   .     S
V40     V61    10.0   1_665     S
V40     V62    10.0   1_655     S
V40     V8    10.0   1_556     S
V41     V45    10.0   .     S
V41     V60    10.0   .     S
V41     V58    10.0   .     S
V42     V46    10.0   .     S
V42     V59    10.0   1_565     S
V42     V57    10.0   1_565     S
V43     V47    10.0   .     S
V43     V58    10.0   1_655     S
V43     V60    10.0   .     S
V44     V48    10.0   .     S
V44     V57    10.0   1_665     S
V44     V59    10.0   1_565     S
V45     V53    10.0   .     S
V45     V54    10.0   .     S
V45     V13    10.0   1_556     S
V46     V54    10.0   .     S
V46     V53    10.0   1_565     S
V46     V14    10.0   1_556     S
V47     V55    10.0   .     S
V47     V56    10.0   .     S
V47     V15    10.0   1_556     S
V48     V56    10.0   .     S
V48     V55    10.0   1_565     S
V48     V16    10.0   1_556     S
V49     V53    10.0   .     S
V49     V57    10.0   .     S
V49     V35    10.0   1_455     S
V50     V54    10.0   .     S
V50     V58    10.0   .     S
V50     V36    10.0   1_455     S
V51     V55    10.0   .     S
V51     V59    10.0   .     S
V52     V56    10.0   .     S
V52     V60    10.0   .     S
V53     V61    10.0   .     S
V53     V46    10.0   1_545     S
V53     V21    10.0   1_556     S
V54     V62    10.0   .     S
V54     V22    10.0   1_556     S
V55     V63    10.0   .     S
V55     V48    10.0   1_545     S
V55     V23    10.0   1_556     S
V56     V64    10.0   .     S
V56     V24    10.0   1_556     S
V57     V44    10.0   1_445     S
V57     V61    10.0   .     S
V57     V42    10.0   1_545     S
V58     V43    10.0   1_455     S
V58     V62    10.0   .     S
V59     V42    10.0   1_545     S
V59     V63    10.0   .     S
V59     V44    10.0   1_545     S
V60     V64    10.0   .     S
V61     V40    10.0   1_445     S
V61     V39    10.0   1_455     S
V61     V29    10.0   1_556     S
V62     V39    10.0   1_455     S
V62     V40    10.0   1_455     S
V62     V30    10.0   1_556     S
V63     V38    10.0   1_545     S
V63     V31    10.0   1_556     S
V64     V32    10.0   1_556     S
