data_zfn
_audit_creation_date              2019-12-31
_audit_creation_method            'Pymatgen'
_symmetry_space_group_name_H-M    'P1'
_symmetry_Int_Tables_number       1
loop_
_symmetry_equiv_pos_as_xyz
  x,y,z
_cell_length_a                    47.2306
_cell_length_b                    47.2306
_cell_length_c                    30.0
_cell_angle_alpha                 90.0
_cell_angle_beta                 90.0
_cell_angle_gamma                 90.0
loop_
_atom_site_label
_atom_site_type_symbol
_atom_site_fract_x
_atom_site_fract_y
_atom_site_fract_z
V1     V     0.6465   0.9967   0.0486
V2     V     0.6465   0.9967   0.382
V3     V     0.6465   0.9967   0.7153
V4     V     0.8535   0.9967   0.118
V5     V     0.8535   0.9967   0.4514
V6     V     0.8535   0.9967   0.7847
V7     V     0.9967   0.6465   0.2847
V8     V     0.9967   0.6465   0.618
V9     V     0.9967   0.6465   0.9514
V10     V     0.9967   0.8535   0.2153
V11     V     0.9967   0.8535   0.5486
V12     V     0.9967   0.8535   0.882
V13     V     0.6465   0.5033   0.118
V14     V     0.6465   0.5033   0.4514
V15     V     0.6465   0.5033   0.7847
V16     V     0.8535   0.5033   0.0486
V17     V     0.8535   0.5033   0.382
V18     V     0.8535   0.5033   0.7153
V19     V     0.5033   0.6465   0.2153
V20     V     0.5033   0.6465   0.5486
V21     V     0.5033   0.6465   0.882
V22     V     0.5033   0.8535   0.2847
V23     V     0.5033   0.8535   0.618
V24     V     0.5033   0.8535   0.9514
V25     V     0.1465   0.0033   0.2153
V26     V     0.1465   0.0033   0.5486
V27     V     0.1465   0.0033   0.882
V28     V     0.3535   0.0033   0.2847
V29     V     0.3535   0.0033   0.618
V30     V     0.3535   0.0033   0.9514
V31     V     0.4967   0.1465   0.0486
V32     V     0.4967   0.1465   0.382
V33     V     0.4967   0.1465   0.7153
V34     V     0.4967   0.3535   0.118
V35     V     0.4967   0.3535   0.4514
V36     V     0.4967   0.3535   0.7847
V37     V     0.1465   0.4967   0.2847
V38     V     0.1465   0.4967   0.618
V39     V     0.1465   0.4967   0.9514
V40     V     0.3535   0.4967   0.2153
V41     V     0.3535   0.4967   0.5486
V42     V     0.3535   0.4967   0.882
V43     V     0.0033   0.1465   0.118
V44     V     0.0033   0.1465   0.4514
V45     V     0.0033   0.1465   0.7847
V46     V     0.0033   0.3535   0.0486
V47     V     0.0033   0.3535   0.382
V48     V     0.0033   0.3535   0.7153
loop_
_geom_bond_atom_site_label_1
_geom_bond_atom_site_label_2
_geom_bond_distance
_geom_bond_site_symmetry_2
_ccdc_geom_bond_type
V1     V4    10.0   .     S
V1     V2    10.0   .     S
V1     V3    10.0   1_554     S
V1     V24    10.0   1_554     S
V1     V31    10.0   1_565     S
V2     V5    10.0   .     S
V2     V3    10.0   .     S
V2     V22    10.0   .     S
V2     V32    10.0   1_565     S
V3     V6    10.0   .     S
V3     V1    10.0   1_556     S
V3     V23    10.0   .     S
V3     V33    10.0   1_565     S
V4     V5    10.0   .     S
V4     V6    10.0   1_554     S
V4     V10    10.0   .     S
V4     V43    10.0   1_665     S
V5     V6    10.0   .     S
V5     V11    10.0   .     S
V5     V44    10.0   1_665     S
V6     V4    10.0   1_556     S
V6     V12    10.0   .     S
V6     V45    10.0   1_665     S
V7     V10    10.0   .     S
V7     V9    10.0   1_554     S
V7     V8    10.0   .     S
V7     V17    10.0   .     S
V7     V37    10.0   1_655     S
V8     V11    10.0   .     S
V8     V9    10.0   .     S
V8     V18    10.0   .     S
V8     V38    10.0   1_655     S
V9     V12    10.0   .     S
V9     V7    10.0   1_556     S
V9     V16    10.0   1_556     S
V9     V39    10.0   1_655     S
V10     V12    10.0   1_554     S
V10     V11    10.0   .     S
V10     V25    10.0   1_665     S
V11     V12    10.0   .     S
V11     V26    10.0   1_665     S
V12     V10    10.0   1_556     S
V12     V27    10.0   1_665     S
V13     V16    10.0   .     S
V13     V14    10.0   .     S
V13     V15    10.0   1_554     S
V13     V19    10.0   .     S
V13     V34    10.0   .     S
V14     V17    10.0   .     S
V14     V15    10.0   .     S
V14     V20    10.0   .     S
V14     V35    10.0   .     S
V15     V18    10.0   .     S
V15     V13    10.0   1_556     S
V15     V21    10.0   .     S
V15     V36    10.0   .     S
V16     V17    10.0   .     S
V16     V18    10.0   1_554     S
V16     V9    10.0   1_554     S
V16     V46    10.0   1_655     S
V17     V18    10.0   .     S
V17     V47    10.0   1_655     S
V18     V16    10.0   1_556     S
V18     V48    10.0   1_655     S
V19     V22    10.0   .     S
V19     V21    10.0   1_554     S
V19     V20    10.0   .     S
V19     V40    10.0   .     S
V20     V23    10.0   .     S
V20     V21    10.0   .     S
V20     V41    10.0   .     S
V21     V24    10.0   .     S
V21     V19    10.0   1_556     S
V21     V42    10.0   .     S
V22     V24    10.0   1_554     S
V22     V23    10.0   .     S
V22     V28    10.0   1_565     S
V23     V24    10.0   .     S
V23     V29    10.0   1_565     S
V24     V22    10.0   1_556     S
V24     V1    10.0   1_556     S
V24     V30    10.0   1_565     S
V25     V28    10.0   .     S
V25     V27    10.0   1_554     S
V25     V26    10.0   .     S
V25     V43    10.0   .     S
V25     V10    10.0   1_445     S
V26     V29    10.0   .     S
V26     V27    10.0   .     S
V26     V44    10.0   .     S
V26     V11    10.0   1_445     S
V27     V30    10.0   .     S
V27     V25    10.0   1_556     S
V27     V45    10.0   .     S
V27     V12    10.0   1_445     S
V28     V30    10.0   1_554     S
V28     V29    10.0   .     S
V28     V32    10.0   .     S
V28     V22    10.0   1_545     S
V29     V30    10.0   .     S
V29     V33    10.0   .     S
V29     V23    10.0   1_545     S
V30     V28    10.0   1_556     S
V30     V31    10.0   1_556     S
V30     V24    10.0   1_545     S
V31     V34    10.0   .     S
V31     V32    10.0   .     S
V31     V33    10.0   1_554     S
V31     V30    10.0   1_554     S
V31     V1    10.0   1_545     S
V32     V35    10.0   .     S
V32     V33    10.0   .     S
V32     V2    10.0   1_545     S
V33     V36    10.0   .     S
V33     V31    10.0   1_556     S
V33     V3    10.0   1_545     S
V34     V35    10.0   .     S
V34     V36    10.0   1_554     S
V34     V40    10.0   .     S
V35     V36    10.0   .     S
V35     V41    10.0   .     S
V36     V34    10.0   1_556     S
V36     V42    10.0   .     S
V37     V40    10.0   .     S
V37     V39    10.0   1_554     S
V37     V38    10.0   .     S
V37     V47    10.0   .     S
V37     V7    10.0   1_455     S
V38     V41    10.0   .     S
V38     V39    10.0   .     S
V38     V48    10.0   .     S
V38     V8    10.0   1_455     S
V39     V42    10.0   .     S
V39     V37    10.0   1_556     S
V39     V46    10.0   1_556     S
V39     V9    10.0   1_455     S
V40     V42    10.0   1_554     S
V40     V41    10.0   .     S
V41     V42    10.0   .     S
V42     V40    10.0   1_556     S
V43     V46    10.0   .     S
V43     V44    10.0   .     S
V43     V45    10.0   1_554     S
V43     V4    10.0   1_445     S
V44     V47    10.0   .     S
V44     V45    10.0   .     S
V44     V5    10.0   1_445     S
V45     V48    10.0   .     S
V45     V43    10.0   1_556     S
V45     V6    10.0   1_445     S
V46     V47    10.0   .     S
V46     V48    10.0   1_554     S
V46     V39    10.0   1_554     S
V46     V16    10.0   1_455     S
V47     V48    10.0   .     S
V47     V17    10.0   1_455     S
V48     V46    10.0   1_556     S
V48     V18    10.0   1_455     S
