data_zfo
_audit_creation_date              2019-12-31
_audit_creation_method            'Pymatgen'
_symmetry_space_group_name_H-M    'P1'
_symmetry_Int_Tables_number       1
loop_
_symmetry_equiv_pos_as_xyz
  x,y,z
_cell_length_a                    39.749
_cell_length_b                    39.749
_cell_length_c                    37.877
_cell_angle_alpha                 90.0
_cell_angle_beta                 90.0
_cell_angle_gamma                 90.0
loop_
_atom_site_label
_atom_site_type_symbol
_atom_site_fract_x
_atom_site_fract_y
_atom_site_fract_z
V1     V     0.1109   0.4407   0.632
V2     V     0.1109   0.9407   0.632
V3     V     0.6109   0.4407   0.632
V4     V     0.6109   0.9407   0.632
V5     V     0.1907   0.3609   0.868
V6     V     0.1907   0.8609   0.868
V7     V     0.6907   0.3609   0.868
V8     V     0.6907   0.8609   0.868
V9     V     0.3609   0.3093   0.632
V10     V     0.3609   0.8093   0.632
V11     V     0.8609   0.3093   0.632
V12     V     0.8609   0.8093   0.632
V13     V     0.4407   0.3891   0.868
V14     V     0.4407   0.8891   0.868
V15     V     0.9407   0.3891   0.868
V16     V     0.9407   0.8891   0.868
V17     V     0.1391   0.1907   0.632
V18     V     0.1391   0.6907   0.632
V19     V     0.6391   0.1907   0.632
V20     V     0.6391   0.6907   0.632
V21     V     0.0593   0.1109   0.868
V22     V     0.0593   0.6109   0.868
V23     V     0.5593   0.1109   0.868
V24     V     0.5593   0.6109   0.868
V25     V     0.3891   0.0593   0.632
V26     V     0.3891   0.5593   0.632
V27     V     0.8891   0.0593   0.632
V28     V     0.8891   0.5593   0.632
V29     V     0.3093   0.1391   0.868
V30     V     0.3093   0.6391   0.868
V31     V     0.8093   0.1391   0.868
V32     V     0.8093   0.6391   0.868
V33     V     0.1907   0.3609   0.132
V34     V     0.1907   0.8609   0.132
V35     V     0.6907   0.3609   0.132
V36     V     0.6907   0.8609   0.132
V37     V     0.1109   0.4407   0.368
V38     V     0.1109   0.9407   0.368
V39     V     0.6109   0.4407   0.368
V40     V     0.6109   0.9407   0.368
V41     V     0.3609   0.3093   0.368
V42     V     0.3609   0.8093   0.368
V43     V     0.8609   0.3093   0.368
V44     V     0.8609   0.8093   0.368
V45     V     0.4407   0.3891   0.132
V46     V     0.4407   0.8891   0.132
V47     V     0.9407   0.3891   0.132
V48     V     0.9407   0.8891   0.132
V49     V     0.0593   0.1109   0.132
V50     V     0.0593   0.6109   0.132
V51     V     0.5593   0.1109   0.132
V52     V     0.5593   0.6109   0.132
V53     V     0.1391   0.1907   0.368
V54     V     0.1391   0.6907   0.368
V55     V     0.6391   0.1907   0.368
V56     V     0.6391   0.6907   0.368
V57     V     0.3093   0.1391   0.132
V58     V     0.3093   0.6391   0.132
V59     V     0.8093   0.1391   0.132
V60     V     0.8093   0.6391   0.132
V61     V     0.3891   0.0593   0.368
V62     V     0.3891   0.5593   0.368
V63     V     0.8891   0.0593   0.368
V64     V     0.8891   0.5593   0.368
loop_
_geom_bond_atom_site_label_1
_geom_bond_atom_site_label_2
_geom_bond_distance
_geom_bond_site_symmetry_2
_ccdc_geom_bond_type
V1     V5    10.0   .     S
V1     V17    10.0   .     S
V1     V18    10.0   .     S
V1     V28    10.0   1_455     S
V1     V37    10.0   .     S
V2     V6    10.0   .     S
V2     V18    10.0   .     S
V2     V17    10.0   1_565     S
V2     V27    10.0   1_465     S
V2     V38    10.0   .     S
V3     V7    10.0   .     S
V3     V19    10.0   .     S
V3     V20    10.0   .     S
V3     V26    10.0   .     S
V3     V39    10.0   .     S
V4     V8    10.0   .     S
V4     V20    10.0   .     S
V4     V19    10.0   1_565     S
V4     V25    10.0   1_565     S
V4     V40    10.0   .     S
V5     V15    10.0   1_455     S
V5     V13    10.0   .     S
V5     V29    10.0   .     S
V5     V33    10.0   1_556     S
V6     V16    10.0   1_455     S
V6     V14    10.0   .     S
V6     V30    10.0   .     S
V6     V34    10.0   1_556     S
V7     V13    10.0   .     S
V7     V15    10.0   .     S
V7     V31    10.0   .     S
V7     V35    10.0   1_556     S
V8     V14    10.0   .     S
V8     V16    10.0   .     S
V8     V32    10.0   .     S
V8     V36    10.0   1_556     S
V9     V13    10.0   .     S
V9     V25    10.0   .     S
V9     V26    10.0   .     S
V9     V17    10.0   .     S
V9     V41    10.0   .     S
V10     V14    10.0   .     S
V10     V26    10.0   .     S
V10     V25    10.0   1_565     S
V10     V18    10.0   .     S
V10     V42    10.0   .     S
V11     V15    10.0   .     S
V11     V27    10.0   .     S
V11     V28    10.0   .     S
V11     V19    10.0   .     S
V11     V43    10.0   .     S
V12     V16    10.0   .     S
V12     V28    10.0   .     S
V12     V27    10.0   1_565     S
V12     V20    10.0   .     S
V12     V44    10.0   .     S
V13     V24    10.0   .     S
V13     V45    10.0   1_556     S
V14     V23    10.0   1_565     S
V14     V46    10.0   1_556     S
V15     V5    10.0   1_655     S
V15     V22    10.0   1_655     S
V15     V47    10.0   1_556     S
V16     V6    10.0   1_655     S
V16     V21    10.0   1_665     S
V16     V48    10.0   1_556     S
V17     V21    10.0   .     S
V17     V2    10.0   1_545     S
V17     V53    10.0   .     S
V18     V22    10.0   .     S
V18     V54    10.0   .     S
V19     V23    10.0   .     S
V19     V4    10.0   1_545     S
V19     V55    10.0   .     S
V20     V24    10.0   .     S
V20     V56    10.0   .     S
V21     V29    10.0   .     S
V21     V31    10.0   1_455     S
V21     V16    10.0   1_445     S
V21     V49    10.0   1_556     S
V22     V30    10.0   .     S
V22     V32    10.0   1_455     S
V22     V15    10.0   1_455     S
V22     V50    10.0   1_556     S
V23     V31    10.0   .     S
V23     V29    10.0   .     S
V23     V14    10.0   1_545     S
V23     V51    10.0   1_556     S
V24     V32    10.0   .     S
V24     V30    10.0   .     S
V24     V52    10.0   1_556     S
V25     V29    10.0   .     S
V25     V10    10.0   1_545     S
V25     V4    10.0   1_545     S
V25     V61    10.0   .     S
V26     V30    10.0   .     S
V26     V62    10.0   .     S
V27     V31    10.0   .     S
V27     V12    10.0   1_545     S
V27     V2    10.0   1_645     S
V27     V63    10.0   .     S
V28     V32    10.0   .     S
V28     V1    10.0   1_655     S
V28     V64    10.0   .     S
V29     V57    10.0   1_556     S
V30     V58    10.0   1_556     S
V31     V21    10.0   1_655     S
V31     V59    10.0   1_556     S
V32     V22    10.0   1_655     S
V32     V60    10.0   1_556     S
V33     V5    10.0   1_554     S
V33     V37    10.0   .     S
V33     V45    10.0   .     S
V33     V47    10.0   1_455     S
V33     V57    10.0   .     S
V34     V6    10.0   1_554     S
V34     V38    10.0   .     S
V34     V46    10.0   .     S
V34     V48    10.0   1_455     S
V34     V58    10.0   .     S
V35     V7    10.0   1_554     S
V35     V39    10.0   .     S
V35     V47    10.0   .     S
V35     V45    10.0   .     S
V35     V59    10.0   .     S
V36     V8    10.0   1_554     S
V36     V40    10.0   .     S
V36     V48    10.0   .     S
V36     V46    10.0   .     S
V36     V60    10.0   .     S
V37     V54    10.0   .     S
V37     V53    10.0   .     S
V37     V64    10.0   1_455     S
V38     V53    10.0   1_565     S
V38     V54    10.0   .     S
V38     V63    10.0   1_465     S
V39     V56    10.0   .     S
V39     V55    10.0   .     S
V39     V62    10.0   .     S
V40     V55    10.0   1_565     S
V40     V56    10.0   .     S
V40     V61    10.0   1_565     S
V41     V45    10.0   .     S
V41     V61    10.0   .     S
V41     V62    10.0   .     S
V41     V53    10.0   .     S
V42     V46    10.0   .     S
V42     V62    10.0   .     S
V42     V61    10.0   1_565     S
V42     V54    10.0   .     S
V43     V47    10.0   .     S
V43     V63    10.0   .     S
V43     V64    10.0   .     S
V43     V55    10.0   .     S
V44     V48    10.0   .     S
V44     V64    10.0   .     S
V44     V63    10.0   1_565     S
V44     V56    10.0   .     S
V45     V13    10.0   1_554     S
V45     V52    10.0   .     S
V46     V14    10.0   1_554     S
V46     V51    10.0   1_565     S
V47     V15    10.0   1_554     S
V47     V33    10.0   1_655     S
V47     V50    10.0   1_655     S
V48     V16    10.0   1_554     S
V48     V34    10.0   1_655     S
V48     V49    10.0   1_665     S
V49     V21    10.0   1_554     S
V49     V53    10.0   .     S
V49     V57    10.0   .     S
V49     V59    10.0   1_455     S
V49     V48    10.0   1_445     S
V50     V22    10.0   1_554     S
V50     V54    10.0   .     S
V50     V58    10.0   .     S
V50     V60    10.0   1_455     S
V50     V47    10.0   1_455     S
V51     V23    10.0   1_554     S
V51     V55    10.0   .     S
V51     V59    10.0   .     S
V51     V57    10.0   .     S
V51     V46    10.0   1_545     S
V52     V24    10.0   1_554     S
V52     V56    10.0   .     S
V52     V60    10.0   .     S
V52     V58    10.0   .     S
V53     V38    10.0   1_545     S
V55     V40    10.0   1_545     S
V57     V29    10.0   1_554     S
V57     V61    10.0   .     S
V58     V30    10.0   1_554     S
V58     V62    10.0   .     S
V59     V31    10.0   1_554     S
V59     V63    10.0   .     S
V59     V49    10.0   1_655     S
V60     V32    10.0   1_554     S
V60     V64    10.0   .     S
V60     V50    10.0   1_655     S
V61     V42    10.0   1_545     S
V61     V40    10.0   1_545     S
V63     V44    10.0   1_545     S
V63     V38    10.0   1_645     S
V64     V37    10.0   1_655     S
