data_zfp
_audit_creation_date              2019-12-31
_audit_creation_method            'Pymatgen'
_symmetry_space_group_name_H-M    'P1'
_symmetry_Int_Tables_number       1
loop_
_symmetry_equiv_pos_as_xyz
  x,y,z
_cell_length_a                    39.6316
_cell_length_b                    39.6316
_cell_length_c                    39.4225
_cell_angle_alpha                 90.0
_cell_angle_beta                 90.0
_cell_angle_gamma                 90.0
loop_
_atom_site_label
_atom_site_type_symbol
_atom_site_fract_x
_atom_site_fract_y
_atom_site_fract_z
V1     V     0.4346   0.3579   0.1268
V2     V     0.4346   0.8579   0.1268
V3     V     0.9346   0.3579   0.1268
V4     V     0.9346   0.8579   0.1268
V5     V     0.4346   0.3579   0.8732
V6     V     0.4346   0.8579   0.8732
V7     V     0.9346   0.3579   0.8732
V8     V     0.9346   0.8579   0.8732
V9     V     0.3921   0.3154   0.6268
V10     V     0.3921   0.8154   0.6268
V11     V     0.8921   0.3154   0.6268
V12     V     0.8921   0.8154   0.6268
V13     V     0.3921   0.3154   0.3732
V14     V     0.3921   0.8154   0.3732
V15     V     0.8921   0.3154   0.3732
V16     V     0.8921   0.8154   0.3732
V17     V     0.3154   0.1079   0.1268
V18     V     0.3154   0.6079   0.1268
V19     V     0.8154   0.1079   0.1268
V20     V     0.8154   0.6079   0.1268
V21     V     0.3154   0.1079   0.8732
V22     V     0.3154   0.6079   0.8732
V23     V     0.8154   0.1079   0.8732
V24     V     0.8154   0.6079   0.8732
V25     V     0.3579   0.0654   0.6268
V26     V     0.3579   0.5654   0.6268
V27     V     0.8579   0.0654   0.6268
V28     V     0.8579   0.5654   0.6268
V29     V     0.3579   0.0654   0.3732
V30     V     0.3579   0.5654   0.3732
V31     V     0.8579   0.0654   0.3732
V32     V     0.8579   0.5654   0.3732
V33     V     0.0654   0.1421   0.1268
V34     V     0.0654   0.6421   0.1268
V35     V     0.5654   0.1421   0.1268
V36     V     0.5654   0.6421   0.1268
V37     V     0.0654   0.1421   0.8732
V38     V     0.0654   0.6421   0.8732
V39     V     0.5654   0.1421   0.8732
V40     V     0.5654   0.6421   0.8732
V41     V     0.1079   0.1846   0.6268
V42     V     0.1079   0.6846   0.6268
V43     V     0.6079   0.1846   0.6268
V44     V     0.6079   0.6846   0.6268
V45     V     0.1079   0.1846   0.3732
V46     V     0.1079   0.6846   0.3732
V47     V     0.6079   0.1846   0.3732
V48     V     0.6079   0.6846   0.3732
V49     V     0.1421   0.4346   0.6268
V50     V     0.1421   0.9346   0.6268
V51     V     0.6421   0.4346   0.6268
V52     V     0.6421   0.9346   0.6268
V53     V     0.1421   0.4346   0.3732
V54     V     0.1421   0.9346   0.3732
V55     V     0.6421   0.4346   0.3732
V56     V     0.6421   0.9346   0.3732
V57     V     0.1846   0.3921   0.1268
V58     V     0.1846   0.8921   0.1268
V59     V     0.6846   0.3921   0.1268
V60     V     0.6846   0.8921   0.1268
V61     V     0.1846   0.3921   0.8732
V62     V     0.1846   0.8921   0.8732
V63     V     0.6846   0.3921   0.8732
V64     V     0.6846   0.8921   0.8732
loop_
_geom_bond_atom_site_label_1
_geom_bond_atom_site_label_2
_geom_bond_distance
_geom_bond_site_symmetry_2
_ccdc_geom_bond_type
V1     V5    10.0   1_554     S
V1     V13    10.0   .     S
V1     V59    10.0   .     S
V1     V57    10.0   .     S
V1     V35    10.0   .     S
V2     V6    10.0   1_554     S
V2     V14    10.0   .     S
V2     V60    10.0   .     S
V2     V58    10.0   .     S
V2     V36    10.0   .     S
V3     V7    10.0   1_554     S
V3     V15    10.0   .     S
V3     V57    10.0   1_655     S
V3     V59    10.0   .     S
V3     V33    10.0   1_655     S
V4     V8    10.0   1_554     S
V4     V16    10.0   .     S
V4     V58    10.0   1_655     S
V4     V60    10.0   .     S
V4     V34    10.0   1_655     S
V5     V1    10.0   1_556     S
V5     V9    10.0   .     S
V5     V63    10.0   .     S
V5     V61    10.0   .     S
V5     V39    10.0   .     S
V6     V2    10.0   1_556     S
V6     V10    10.0   .     S
V6     V64    10.0   .     S
V6     V62    10.0   .     S
V6     V40    10.0   .     S
V7     V3    10.0   1_556     S
V7     V11    10.0   .     S
V7     V61    10.0   1_655     S
V7     V63    10.0   .     S
V7     V37    10.0   1_655     S
V8     V4    10.0   1_556     S
V8     V12    10.0   .     S
V8     V62    10.0   1_655     S
V8     V64    10.0   .     S
V8     V38    10.0   1_655     S
V9     V13    10.0   .     S
V9     V26    10.0   .     S
V9     V25    10.0   .     S
V9     V43    10.0   .     S
V10     V14    10.0   .     S
V10     V25    10.0   1_565     S
V10     V26    10.0   .     S
V10     V44    10.0   .     S
V11     V15    10.0   .     S
V11     V28    10.0   .     S
V11     V27    10.0   .     S
V11     V41    10.0   1_655     S
V12     V16    10.0   .     S
V12     V27    10.0   1_565     S
V12     V28    10.0   .     S
V12     V42    10.0   1_655     S
V13     V30    10.0   .     S
V13     V29    10.0   .     S
V13     V47    10.0   .     S
V14     V29    10.0   1_565     S
V14     V30    10.0   .     S
V14     V48    10.0   .     S
V15     V32    10.0   .     S
V15     V31    10.0   .     S
V15     V45    10.0   1_655     S
V16     V31    10.0   1_565     S
V16     V32    10.0   .     S
V16     V46    10.0   1_655     S
V17     V21    10.0   1_554     S
V17     V29    10.0   .     S
V17     V35    10.0   .     S
V17     V33    10.0   .     S
V17     V58    10.0   1_545     S
V18     V22    10.0   1_554     S
V18     V30    10.0   .     S
V18     V36    10.0   .     S
V18     V34    10.0   .     S
V18     V57    10.0   .     S
V19     V23    10.0   1_554     S
V19     V31    10.0   .     S
V19     V33    10.0   1_655     S
V19     V35    10.0   .     S
V19     V60    10.0   1_545     S
V20     V24    10.0   1_554     S
V20     V32    10.0   .     S
V20     V34    10.0   1_655     S
V20     V36    10.0   .     S
V20     V59    10.0   .     S
V21     V17    10.0   1_556     S
V21     V25    10.0   .     S
V21     V39    10.0   .     S
V21     V37    10.0   .     S
V21     V62    10.0   1_545     S
V22     V18    10.0   1_556     S
V22     V26    10.0   .     S
V22     V40    10.0   .     S
V22     V38    10.0   .     S
V22     V61    10.0   .     S
V23     V19    10.0   1_556     S
V23     V27    10.0   .     S
V23     V37    10.0   1_655     S
V23     V39    10.0   .     S
V23     V64    10.0   1_545     S
V24     V20    10.0   1_556     S
V24     V28    10.0   .     S
V24     V38    10.0   1_655     S
V24     V40    10.0   .     S
V24     V63    10.0   .     S
V25     V29    10.0   .     S
V25     V10    10.0   1_545     S
V25     V50    10.0   1_545     S
V26     V30    10.0   .     S
V26     V49    10.0   .     S
V27     V31    10.0   .     S
V27     V12    10.0   1_545     S
V27     V52    10.0   1_545     S
V28     V32    10.0   .     S
V28     V51    10.0   .     S
V29     V14    10.0   1_545     S
V29     V54    10.0   1_545     S
V30     V53    10.0   .     S
V31     V16    10.0   1_545     S
V31     V56    10.0   1_545     S
V32     V55    10.0   .     S
V33     V37    10.0   1_554     S
V33     V45    10.0   .     S
V33     V19    10.0   1_455     S
V33     V3    10.0   1_455     S
V34     V38    10.0   1_554     S
V34     V46    10.0   .     S
V34     V20    10.0   1_455     S
V34     V4    10.0   1_455     S
V35     V39    10.0   1_554     S
V35     V47    10.0   .     S
V36     V40    10.0   1_554     S
V36     V48    10.0   .     S
V37     V33    10.0   1_556     S
V37     V41    10.0   .     S
V37     V23    10.0   1_455     S
V37     V7    10.0   1_455     S
V38     V34    10.0   1_556     S
V38     V42    10.0   .     S
V38     V24    10.0   1_455     S
V38     V8    10.0   1_455     S
V39     V35    10.0   1_556     S
V39     V43    10.0   .     S
V40     V36    10.0   1_556     S
V40     V44    10.0   .     S
V41     V45    10.0   .     S
V41     V50    10.0   1_545     S
V41     V49    10.0   .     S
V41     V11    10.0   1_455     S
V42     V46    10.0   .     S
V42     V49    10.0   .     S
V42     V50    10.0   .     S
V42     V12    10.0   1_455     S
V43     V47    10.0   .     S
V43     V52    10.0   1_545     S
V43     V51    10.0   .     S
V44     V48    10.0   .     S
V44     V51    10.0   .     S
V44     V52    10.0   .     S
V45     V54    10.0   1_545     S
V45     V53    10.0   .     S
V45     V15    10.0   1_455     S
V46     V53    10.0   .     S
V46     V54    10.0   .     S
V46     V16    10.0   1_455     S
V47     V56    10.0   1_545     S
V47     V55    10.0   .     S
V48     V55    10.0   .     S
V48     V56    10.0   .     S
V49     V53    10.0   .     S
V49     V61    10.0   .     S
V50     V54    10.0   .     S
V50     V62    10.0   .     S
V50     V41    10.0   1_565     S
V50     V25    10.0   1_565     S
V51     V55    10.0   .     S
V51     V63    10.0   .     S
V52     V56    10.0   .     S
V52     V64    10.0   .     S
V52     V43    10.0   1_565     S
V52     V27    10.0   1_565     S
V53     V57    10.0   .     S
V54     V58    10.0   .     S
V54     V45    10.0   1_565     S
V54     V29    10.0   1_565     S
V55     V59    10.0   .     S
V56     V60    10.0   .     S
V56     V47    10.0   1_565     S
V56     V31    10.0   1_565     S
V57     V3    10.0   1_455     S
V57     V61    10.0   1_554     S
V58     V4    10.0   1_455     S
V58     V62    10.0   1_554     S
V58     V17    10.0   1_565     S
V59     V63    10.0   1_554     S
V60     V64    10.0   1_554     S
V60     V19    10.0   1_565     S
V61     V7    10.0   1_455     S
V61     V57    10.0   1_556     S
V62     V8    10.0   1_455     S
V62     V58    10.0   1_556     S
V62     V21    10.0   1_565     S
V63     V59    10.0   1_556     S
V64     V60    10.0   1_556     S
V64     V23    10.0   1_565     S
