data_zfq
_audit_creation_date              2019-12-31
_audit_creation_method            'Pymatgen'
_symmetry_space_group_name_H-M    'P1'
_symmetry_Int_Tables_number       1
loop_
_symmetry_equiv_pos_as_xyz
  x,y,z
_cell_length_a                    39.4622
_cell_length_b                    39.4622
_cell_length_c                    37.8983
_cell_angle_alpha                 90.0
_cell_angle_beta                 90.0
_cell_angle_gamma                 90.0
loop_
_atom_site_label
_atom_site_type_symbol
_atom_site_fract_x
_atom_site_fract_y
_atom_site_fract_z
V1     V     0.3543   0.1781   0.3798
V2     V     0.3543   0.6781   0.3798
V3     V     0.8543   0.1781   0.3798
V4     V     0.8543   0.6781   0.3798
V5     V     0.3219   0.1457   0.1202
V6     V     0.3219   0.6457   0.1202
V7     V     0.8219   0.1457   0.1202
V8     V     0.8219   0.6457   0.1202
V9     V     0.1457   0.3219   0.3798
V10     V     0.1457   0.8219   0.3798
V11     V     0.6457   0.3219   0.3798
V12     V     0.6457   0.8219   0.3798
V13     V     0.1781   0.3543   0.1202
V14     V     0.1781   0.8543   0.1202
V15     V     0.6781   0.3543   0.1202
V16     V     0.6781   0.8543   0.1202
V17     V     0.1043   0.0719   0.3798
V18     V     0.1043   0.5719   0.3798
V19     V     0.6043   0.0719   0.3798
V20     V     0.6043   0.5719   0.3798
V21     V     0.0719   0.1043   0.1202
V22     V     0.0719   0.6043   0.1202
V23     V     0.5719   0.1043   0.1202
V24     V     0.5719   0.6043   0.1202
V25     V     0.3957   0.4281   0.3798
V26     V     0.3957   0.9281   0.3798
V27     V     0.8957   0.4281   0.3798
V28     V     0.8957   0.9281   0.3798
V29     V     0.4281   0.3957   0.1202
V30     V     0.4281   0.8957   0.1202
V31     V     0.9281   0.3957   0.1202
V32     V     0.9281   0.8957   0.1202
V33     V     0.1781   0.1457   0.6202
V34     V     0.1781   0.6457   0.6202
V35     V     0.6781   0.1457   0.6202
V36     V     0.6781   0.6457   0.6202
V37     V     0.1457   0.1781   0.8798
V38     V     0.1457   0.6781   0.8798
V39     V     0.6457   0.1781   0.8798
V40     V     0.6457   0.6781   0.8798
V41     V     0.3219   0.3543   0.6202
V42     V     0.3219   0.8543   0.6202
V43     V     0.8219   0.3543   0.6202
V44     V     0.8219   0.8543   0.6202
V45     V     0.3543   0.3219   0.8798
V46     V     0.3543   0.8219   0.8798
V47     V     0.8543   0.3219   0.8798
V48     V     0.8543   0.8219   0.8798
V49     V     0.0719   0.3957   0.6202
V50     V     0.0719   0.8957   0.6202
V51     V     0.5719   0.3957   0.6202
V52     V     0.5719   0.8957   0.6202
V53     V     0.1043   0.4281   0.8798
V54     V     0.1043   0.9281   0.8798
V55     V     0.6043   0.4281   0.8798
V56     V     0.6043   0.9281   0.8798
V57     V     0.4281   0.1043   0.6202
V58     V     0.4281   0.6043   0.6202
V59     V     0.9281   0.1043   0.6202
V60     V     0.9281   0.6043   0.6202
V61     V     0.3957   0.0719   0.8798
V62     V     0.3957   0.5719   0.8798
V63     V     0.8957   0.0719   0.8798
V64     V     0.8957   0.5719   0.8798
loop_
_geom_bond_atom_site_label_1
_geom_bond_atom_site_label_2
_geom_bond_distance
_geom_bond_site_symmetry_2
_ccdc_geom_bond_type
V1     V5    10.0   .     S
V1     V9    10.0   .     S
V1     V26    10.0   1_545     S
V1     V25    10.0   .     S
V1     V57    10.0   .     S
V2     V6    10.0   .     S
V2     V10    10.0   .     S
V2     V25    10.0   .     S
V2     V26    10.0   .     S
V2     V58    10.0   .     S
V3     V7    10.0   .     S
V3     V11    10.0   .     S
V3     V28    10.0   1_545     S
V3     V27    10.0   .     S
V3     V59    10.0   .     S
V4     V8    10.0   .     S
V4     V12    10.0   .     S
V4     V27    10.0   .     S
V4     V28    10.0   .     S
V4     V60    10.0   .     S
V5     V13    10.0   .     S
V5     V21    10.0   .     S
V5     V23    10.0   .     S
V5     V61    10.0   1_554     S
V6     V14    10.0   .     S
V6     V22    10.0   .     S
V6     V24    10.0   .     S
V6     V62    10.0   1_554     S
V7     V15    10.0   .     S
V7     V23    10.0   .     S
V7     V21    10.0   1_655     S
V7     V63    10.0   1_554     S
V8     V16    10.0   .     S
V8     V24    10.0   .     S
V8     V22    10.0   1_655     S
V8     V64    10.0   1_554     S
V9     V13    10.0   .     S
V9     V17    10.0   .     S
V9     V18    10.0   .     S
V9     V49    10.0   .     S
V10     V14    10.0   .     S
V10     V18    10.0   .     S
V10     V17    10.0   1_565     S
V10     V50    10.0   .     S
V11     V15    10.0   .     S
V11     V19    10.0   .     S
V11     V20    10.0   .     S
V11     V51    10.0   .     S
V12     V16    10.0   .     S
V12     V20    10.0   .     S
V12     V19    10.0   1_565     S
V12     V52    10.0   .     S
V13     V29    10.0   .     S
V13     V31    10.0   1_455     S
V13     V53    10.0   1_554     S
V14     V30    10.0   .     S
V14     V32    10.0   1_455     S
V14     V54    10.0   1_554     S
V15     V31    10.0   .     S
V15     V29    10.0   .     S
V15     V55    10.0   1_554     S
V16     V32    10.0   .     S
V16     V30    10.0   .     S
V16     V56    10.0   1_554     S
V17     V21    10.0   .     S
V17     V28    10.0   1_445     S
V17     V10    10.0   1_545     S
V17     V33    10.0   .     S
V18     V22    10.0   .     S
V18     V27    10.0   1_455     S
V18     V34    10.0   .     S
V19     V23    10.0   .     S
V19     V26    10.0   1_545     S
V19     V12    10.0   1_545     S
V19     V35    10.0   .     S
V20     V24    10.0   .     S
V20     V25    10.0   .     S
V20     V36    10.0   .     S
V21     V32    10.0   1_445     S
V21     V7    10.0   1_455     S
V21     V37    10.0   1_554     S
V22     V31    10.0   1_455     S
V22     V8    10.0   1_455     S
V22     V38    10.0   1_554     S
V23     V30    10.0   1_545     S
V23     V39    10.0   1_554     S
V24     V29    10.0   .     S
V24     V40    10.0   1_554     S
V25     V29    10.0   .     S
V25     V41    10.0   .     S
V26     V30    10.0   .     S
V26     V19    10.0   1_565     S
V26     V1    10.0   1_565     S
V26     V42    10.0   .     S
V27     V31    10.0   .     S
V27     V18    10.0   1_655     S
V27     V43    10.0   .     S
V28     V32    10.0   .     S
V28     V17    10.0   1_665     S
V28     V3    10.0   1_565     S
V28     V44    10.0   .     S
V29     V45    10.0   1_554     S
V30     V23    10.0   1_565     S
V30     V46    10.0   1_554     S
V31     V22    10.0   1_655     S
V31     V13    10.0   1_655     S
V31     V47    10.0   1_554     S
V32     V21    10.0   1_665     S
V32     V14    10.0   1_655     S
V32     V48    10.0   1_554     S
V33     V37    10.0   .     S
V33     V41    10.0   .     S
V33     V59    10.0   1_455     S
V33     V57    10.0   .     S
V34     V38    10.0   .     S
V34     V42    10.0   .     S
V34     V60    10.0   1_455     S
V34     V58    10.0   .     S
V35     V39    10.0   .     S
V35     V43    10.0   .     S
V35     V57    10.0   .     S
V35     V59    10.0   .     S
V36     V40    10.0   .     S
V36     V44    10.0   .     S
V36     V58    10.0   .     S
V36     V60    10.0   .     S
V37     V45    10.0   .     S
V37     V53    10.0   .     S
V37     V54    10.0   1_545     S
V37     V21    10.0   1_556     S
V38     V46    10.0   .     S
V38     V54    10.0   .     S
V38     V53    10.0   .     S
V38     V22    10.0   1_556     S
V39     V47    10.0   .     S
V39     V55    10.0   .     S
V39     V56    10.0   1_545     S
V39     V23    10.0   1_556     S
V40     V48    10.0   .     S
V40     V56    10.0   .     S
V40     V55    10.0   .     S
V40     V24    10.0   1_556     S
V41     V45    10.0   .     S
V41     V49    10.0   .     S
V41     V51    10.0   .     S
V42     V46    10.0   .     S
V42     V50    10.0   .     S
V42     V52    10.0   .     S
V43     V47    10.0   .     S
V43     V51    10.0   .     S
V43     V49    10.0   1_655     S
V44     V48    10.0   .     S
V44     V52    10.0   .     S
V44     V50    10.0   1_655     S
V45     V61    10.0   .     S
V45     V62    10.0   .     S
V45     V29    10.0   1_556     S
V46     V62    10.0   .     S
V46     V61    10.0   1_565     S
V46     V30    10.0   1_556     S
V47     V63    10.0   .     S
V47     V64    10.0   .     S
V47     V31    10.0   1_556     S
V48     V64    10.0   .     S
V48     V63    10.0   1_565     S
V48     V32    10.0   1_556     S
V49     V53    10.0   .     S
V49     V60    10.0   1_455     S
V49     V43    10.0   1_455     S
V50     V54    10.0   .     S
V50     V59    10.0   1_465     S
V50     V44    10.0   1_455     S
V51     V55    10.0   .     S
V51     V58    10.0   .     S
V52     V56    10.0   .     S
V52     V57    10.0   1_565     S
V53     V13    10.0   1_556     S
V53     V64    10.0   1_455     S
V54     V14    10.0   1_556     S
V54     V63    10.0   1_465     S
V54     V37    10.0   1_565     S
V55     V15    10.0   1_556     S
V55     V62    10.0   .     S
V56     V16    10.0   1_556     S
V56     V61    10.0   1_565     S
V56     V39    10.0   1_565     S
V57     V61    10.0   .     S
V57     V52    10.0   1_545     S
V58     V62    10.0   .     S
V59     V63    10.0   .     S
V59     V50    10.0   1_645     S
V59     V33    10.0   1_655     S
V60     V64    10.0   .     S
V60     V49    10.0   1_655     S
V60     V34    10.0   1_655     S
V61     V5    10.0   1_556     S
V61     V56    10.0   1_545     S
V61     V46    10.0   1_545     S
V62     V6    10.0   1_556     S
V63     V7    10.0   1_556     S
V63     V54    10.0   1_645     S
V63     V48    10.0   1_545     S
V64     V8    10.0   1_556     S
V64     V53    10.0   1_655     S
