data_zfr
_audit_creation_date              2019-12-31
_audit_creation_method            'Pymatgen'
_symmetry_space_group_name_H-M    'P1'
_symmetry_Int_Tables_number       1
loop_
_symmetry_equiv_pos_as_xyz
  x,y,z
_cell_length_a                    32.4078
_cell_length_b                    32.4078
_cell_length_c                    30.0
_cell_angle_alpha                 90.0
_cell_angle_beta                 90.0
_cell_angle_gamma                 90.0
loop_
_atom_site_label
_atom_site_type_symbol
_atom_site_fract_x
_atom_site_fract_y
_atom_site_fract_z
V1     V     0.1374   0.6541   0.0909
V2     V     0.1374   0.6541   0.4242
V3     V     0.1374   0.6541   0.7576
V4     V     0.3459   0.8626   0.3258
V5     V     0.3459   0.8626   0.6591
V6     V     0.3459   0.8626   0.9924
V7     V     0.6541   0.8626   0.0076
V8     V     0.6541   0.8626   0.3409
V9     V     0.6541   0.8626   0.6742
V10     V     0.8626   0.6541   0.2424
V11     V     0.8626   0.6541   0.5758
V12     V     0.8626   0.6541   0.9091
V13     V     0.1374   0.3459   0.0758
V14     V     0.1374   0.3459   0.4091
V15     V     0.1374   0.3459   0.7424
V16     V     0.3459   0.1374   0.1742
V17     V     0.3459   0.1374   0.5076
V18     V     0.3459   0.1374   0.8409
V19     V     0.6541   0.1374   0.1591
V20     V     0.6541   0.1374   0.4924
V21     V     0.6541   0.1374   0.8258
V22     V     0.8626   0.3459   0.2576
V23     V     0.8626   0.3459   0.5909
V24     V     0.8626   0.3459   0.9242
loop_
_geom_bond_atom_site_label_1
_geom_bond_atom_site_label_2
_geom_bond_distance
_geom_bond_site_symmetry_2
_ccdc_geom_bond_type
V1     V6    10.0   1_554     S
V1     V2    10.0   .     S
V1     V3    10.0   1_554     S
V1     V10    10.0   1_455     S
V1     V13    10.0   .     S
V2     V4    10.0   .     S
V2     V3    10.0   .     S
V2     V11    10.0   1_455     S
V2     V14    10.0   .     S
V3     V5    10.0   .     S
V3     V1    10.0   1_556     S
V3     V12    10.0   1_455     S
V3     V15    10.0   .     S
V4     V6    10.0   1_554     S
V4     V5    10.0   .     S
V4     V16    10.0   1_565     S
V4     V8    10.0   .     S
V5     V6    10.0   .     S
V5     V17    10.0   1_565     S
V5     V9    10.0   .     S
V6     V1    10.0   1_556     S
V6     V4    10.0   1_556     S
V6     V18    10.0   1_565     S
V6     V7    10.0   1_556     S
V7     V12    10.0   1_554     S
V7     V8    10.0   .     S
V7     V9    10.0   1_554     S
V7     V19    10.0   1_565     S
V7     V6    10.0   1_554     S
V8     V10    10.0   .     S
V8     V9    10.0   .     S
V8     V20    10.0   1_565     S
V9     V11    10.0   .     S
V9     V7    10.0   1_556     S
V9     V21    10.0   1_565     S
V10     V12    10.0   1_554     S
V10     V11    10.0   .     S
V10     V1    10.0   1_655     S
V10     V22    10.0   .     S
V11     V12    10.0   .     S
V11     V2    10.0   1_655     S
V11     V23    10.0   .     S
V12     V7    10.0   1_556     S
V12     V10    10.0   1_556     S
V12     V3    10.0   1_655     S
V12     V24    10.0   .     S
V13     V16    10.0   .     S
V13     V14    10.0   .     S
V13     V15    10.0   1_554     S
V13     V24    10.0   1_454     S
V14     V17    10.0   .     S
V14     V15    10.0   .     S
V14     V22    10.0   1_455     S
V15     V18    10.0   .     S
V15     V13    10.0   1_556     S
V15     V23    10.0   1_455     S
V16     V4    10.0   1_545     S
V16     V18    10.0   1_554     S
V16     V17    10.0   .     S
V16     V19    10.0   .     S
V17     V5    10.0   1_545     S
V17     V18    10.0   .     S
V17     V20    10.0   .     S
V18     V6    10.0   1_545     S
V18     V16    10.0   1_556     S
V18     V21    10.0   .     S
V19     V7    10.0   1_545     S
V19     V22    10.0   .     S
V19     V20    10.0   .     S
V19     V21    10.0   1_554     S
V20     V8    10.0   1_545     S
V20     V23    10.0   .     S
V20     V21    10.0   .     S
V21     V9    10.0   1_545     S
V21     V24    10.0   .     S
V21     V19    10.0   1_556     S
V22     V24    10.0   1_554     S
V22     V23    10.0   .     S
V22     V14    10.0   1_655     S
V23     V24    10.0   .     S
V23     V15    10.0   1_655     S
V24     V22    10.0   1_556     S
V24     V13    10.0   1_656     S
