data_zft
_audit_creation_date              2019-12-31
_audit_creation_method            'Pymatgen'
_symmetry_space_group_name_H-M    'P1'
_symmetry_Int_Tables_number       1
loop_
_symmetry_equiv_pos_as_xyz
  x,y,z
_cell_length_a                    32.9372
_cell_length_b                    32.9372
_cell_length_c                    32.1772
_cell_angle_alpha                 90.0
_cell_angle_beta                 90.0
_cell_angle_gamma                 90.0
loop_
_atom_site_label
_atom_site_type_symbol
_atom_site_fract_x
_atom_site_fract_y
_atom_site_fract_z
V1     V     0.1327   0.0501   0.8315
V2     V     0.1327   0.5501   0.8315
V3     V     0.6327   0.0501   0.8315
V4     V     0.6327   0.5501   0.8315
V5     V     0.3827   0.1999   0.9185
V6     V     0.3827   0.6999   0.9185
V7     V     0.8827   0.1999   0.9185
V8     V     0.8827   0.6999   0.9185
V9     V     0.0501   0.1327   0.1685
V10     V     0.0501   0.6327   0.1685
V11     V     0.5501   0.1327   0.1685
V12     V     0.5501   0.6327   0.1685
V13     V     0.1999   0.3827   0.0815
V14     V     0.1999   0.8827   0.0815
V15     V     0.6999   0.3827   0.0815
V16     V     0.6999   0.8827   0.0815
V17     V     0.4499   0.3673   0.6685
V18     V     0.4499   0.8673   0.6685
V19     V     0.9499   0.3673   0.6685
V20     V     0.9499   0.8673   0.6685
V21     V     0.3001   0.1173   0.5815
V22     V     0.3001   0.6173   0.5815
V23     V     0.8001   0.1173   0.5815
V24     V     0.8001   0.6173   0.5815
V25     V     0.3673   0.4499   0.3315
V26     V     0.3673   0.9499   0.3315
V27     V     0.8673   0.4499   0.3315
V28     V     0.8673   0.9499   0.3315
V29     V     0.1173   0.3001   0.4185
V30     V     0.1173   0.8001   0.4185
V31     V     0.6173   0.3001   0.4185
V32     V     0.6173   0.8001   0.4185
loop_
_geom_bond_atom_site_label_1
_geom_bond_atom_site_label_2
_geom_bond_distance
_geom_bond_site_symmetry_2
_ccdc_geom_bond_type
V1     V5    10.0   .     S
V1     V7    10.0   1_455     S
V1     V20    10.0   1_445     S
V1     V14    10.0   1_546     S
V1     V21    10.0   .     S
V2     V6    10.0   .     S
V2     V8    10.0   1_455     S
V2     V19    10.0   1_455     S
V2     V13    10.0   1_556     S
V2     V22    10.0   .     S
V3     V7    10.0   .     S
V3     V5    10.0   .     S
V3     V18    10.0   1_545     S
V3     V16    10.0   1_546     S
V3     V23    10.0   .     S
V4     V8    10.0   .     S
V4     V6    10.0   .     S
V4     V17    10.0   .     S
V4     V15    10.0   1_556     S
V4     V24    10.0   .     S
V5     V13    10.0   1_556     S
V5     V17    10.0   .     S
V5     V11    10.0   1_556     S
V6     V14    10.0   1_556     S
V6     V18    10.0   .     S
V6     V12    10.0   1_556     S
V7     V1    10.0   1_655     S
V7     V15    10.0   1_556     S
V7     V19    10.0   .     S
V7     V9    10.0   1_656     S
V8     V2    10.0   1_655     S
V8     V16    10.0   1_556     S
V8     V20    10.0   .     S
V8     V10    10.0   1_656     S
V9     V14    10.0   1_545     S
V9     V13    10.0   .     S
V9     V28    10.0   1_445     S
V9     V29    10.0   .     S
V9     V7    10.0   1_454     S
V10     V13    10.0   .     S
V10     V14    10.0   .     S
V10     V27    10.0   1_455     S
V10     V30    10.0   .     S
V10     V8    10.0   1_454     S
V11     V16    10.0   1_545     S
V11     V15    10.0   .     S
V11     V26    10.0   1_545     S
V11     V31    10.0   .     S
V11     V5    10.0   1_554     S
V12     V15    10.0   .     S
V12     V16    10.0   .     S
V12     V25    10.0   .     S
V12     V32    10.0   .     S
V12     V6    10.0   1_554     S
V13     V5    10.0   1_554     S
V13     V2    10.0   1_554     S
V13     V25    10.0   .     S
V14     V6    10.0   1_554     S
V14     V9    10.0   1_565     S
V14     V1    10.0   1_564     S
V14     V26    10.0   .     S
V15     V7    10.0   1_554     S
V15     V4    10.0   1_554     S
V15     V27    10.0   .     S
V16     V8    10.0   1_554     S
V16     V11    10.0   1_565     S
V16     V3    10.0   1_564     S
V16     V28    10.0   .     S
V17     V22    10.0   .     S
V17     V21    10.0   .     S
V17     V31    10.0   .     S
V18     V21    10.0   1_565     S
V18     V22    10.0   .     S
V18     V3    10.0   1_565     S
V18     V32    10.0   .     S
V19     V24    10.0   .     S
V19     V23    10.0   .     S
V19     V2    10.0   1_655     S
V19     V29    10.0   1_655     S
V20     V23    10.0   1_565     S
V20     V24    10.0   .     S
V20     V1    10.0   1_665     S
V20     V30    10.0   1_655     S
V21     V18    10.0   1_545     S
V21     V29    10.0   .     S
V21     V26    10.0   1_545     S
V22     V30    10.0   .     S
V22     V25    10.0   .     S
V23     V20    10.0   1_545     S
V23     V31    10.0   .     S
V23     V28    10.0   1_545     S
V24     V32    10.0   .     S
V24     V27    10.0   .     S
V25     V29    10.0   .     S
V25     V31    10.0   .     S
V26     V30    10.0   .     S
V26     V32    10.0   .     S
V26     V11    10.0   1_565     S
V26     V21    10.0   1_565     S
V27     V31    10.0   .     S
V27     V29    10.0   1_655     S
V27     V10    10.0   1_655     S
V28     V32    10.0   .     S
V28     V30    10.0   1_655     S
V28     V9    10.0   1_665     S
V28     V23    10.0   1_565     S
V29     V27    10.0   1_455     S
V29     V19    10.0   1_455     S
V30     V28    10.0   1_455     S
V30     V20    10.0   1_455     S
