data_zfu
_audit_creation_date              2019-12-31
_audit_creation_method            'Pymatgen'
_symmetry_space_group_name_H-M    'P1'
_symmetry_Int_Tables_number       1
loop_
_symmetry_equiv_pos_as_xyz
  x,y,z
_cell_length_a                    23.9039
_cell_length_b                    23.9039
_cell_length_c                    32.1592
_cell_angle_alpha                 90.0
_cell_angle_beta                 90.0
_cell_angle_gamma                 90.0
loop_
_atom_site_label
_atom_site_type_symbol
_atom_site_fract_x
_atom_site_fract_y
_atom_site_fract_z
V1     V     0.2641   0.5599   0.25
V2     V     0.2641   0.5599   0.75
V3     V     0.5599   0.2641   0.25
V4     V     0.5599   0.2641   0.75
V5     V     0.7359   0.44   0.0
V6     V     0.7359   0.44   0.5
V7     V     0.44   0.7359   0.0
V8     V     0.44   0.7359   0.5
V9     V     0.06   0.2359   0.125
V10     V     0.06   0.2359   0.625
V11     V     0.7641   0.94   0.125
V12     V     0.7641   0.94   0.625
V13     V     0.2359   0.06   0.375
V14     V     0.2359   0.06   0.875
V15     V     0.94   0.7641   0.375
V16     V     0.94   0.7641   0.875
loop_
_geom_bond_atom_site_label_1
_geom_bond_atom_site_label_2
_geom_bond_distance
_geom_bond_site_symmetry_2
_ccdc_geom_bond_type
V1     V9    10.0   .     S
V1     V3    10.0   .     S
V1     V7    10.0   .     S
V1     V8    10.0   .     S
V1     V15    10.0   1_455     S
V2     V10    10.0   .     S
V2     V4    10.0   .     S
V2     V8    10.0   .     S
V2     V7    10.0   1_556     S
V2     V16    10.0   1_455     S
V3     V13    10.0   .     S
V3     V6    10.0   .     S
V3     V5    10.0   .     S
V3     V11    10.0   1_545     S
V4     V14    10.0   .     S
V4     V5    10.0   1_556     S
V4     V6    10.0   .     S
V4     V12    10.0   1_545     S
V5     V16    10.0   1_554     S
V5     V7    10.0   .     S
V5     V4    10.0   1_554     S
V5     V9    10.0   1_655     S
V6     V15    10.0   .     S
V6     V8    10.0   .     S
V6     V10    10.0   1_655     S
V7     V11    10.0   .     S
V7     V2    10.0   1_554     S
V7     V14    10.0   1_564     S
V8     V12    10.0   .     S
V8     V13    10.0   1_565     S
V9     V5    10.0   1_455     S
V9     V11    10.0   1_445     S
V9     V14    10.0   1_554     S
V9     V13    10.0   .     S
V10     V6    10.0   1_455     S
V10     V12    10.0   1_445     S
V10     V13    10.0   .     S
V10     V14    10.0   .     S
V11     V3    10.0   1_565     S
V11     V9    10.0   1_665     S
V11     V15    10.0   .     S
V11     V16    10.0   1_554     S
V12     V4    10.0   1_565     S
V12     V10    10.0   1_665     S
V12     V16    10.0   .     S
V12     V15    10.0   .     S
V13     V8    10.0   1_545     S
V13     V15    10.0   1_445     S
V14     V7    10.0   1_546     S
V14     V16    10.0   1_445     S
V14     V9    10.0   1_556     S
V15     V1    10.0   1_655     S
V15     V13    10.0   1_665     S
V16     V5    10.0   1_556     S
V16     V2    10.0   1_655     S
V16     V14    10.0   1_665     S
V16     V11    10.0   1_556     S
