data_zfv
_audit_creation_date              2019-12-31
_audit_creation_method            'Pymatgen'
_symmetry_space_group_name_H-M    'P1'
_symmetry_Int_Tables_number       1
loop_
_symmetry_equiv_pos_as_xyz
  x,y,z
_cell_length_a                    47.9164
_cell_length_b                    47.9164
_cell_length_c                    30.0
_cell_angle_alpha                 90.0
_cell_angle_beta                 90.0
_cell_angle_gamma                 90.0
loop_
_atom_site_label
_atom_site_type_symbol
_atom_site_fract_x
_atom_site_fract_y
_atom_site_fract_z
V1     V     0.8532   0.25   0.2746
V2     V     0.8532   0.25   0.608
V3     V     0.8532   0.25   0.9413
V4     V     0.6468   0.25   0.2254
V5     V     0.6468   0.25   0.5587
V6     V     0.6468   0.25   0.892
V7     V     0.5   0.3968   0.1913
V8     V     0.5   0.3968   0.5246
V9     V     0.5   0.3968   0.858
V10     V     0.5   0.6032   0.142
V11     V     0.5   0.6032   0.4754
V12     V     0.5   0.6032   0.8087
V13     V     0.6468   0.75   0.108
V14     V     0.6468   0.75   0.4413
V15     V     0.6468   0.75   0.7746
V16     V     0.8532   0.75   0.0587
V17     V     0.8532   0.75   0.392
V18     V     0.8532   0.75   0.7254
V19     V     0.0   0.8968   0.0246
V20     V     0.0   0.8968   0.358
V21     V     0.0   0.8968   0.6913
V22     V     0.0   0.1032   0.3087
V23     V     0.0   0.1032   0.642
V24     V     0.0   0.1032   0.9754
V25     V     0.1468   0.25   0.2746
V26     V     0.1468   0.25   0.608
V27     V     0.1468   0.25   0.9413
V28     V     0.3532   0.25   0.2254
V29     V     0.3532   0.25   0.5587
V30     V     0.3532   0.25   0.892
V31     V     0.0   0.6032   0.0246
V32     V     0.0   0.6032   0.358
V33     V     0.0   0.6032   0.6913
V34     V     0.0   0.3968   0.3087
V35     V     0.0   0.3968   0.642
V36     V     0.0   0.3968   0.9754
V37     V     0.5   0.8968   0.142
V38     V     0.5   0.8968   0.4754
V39     V     0.5   0.8968   0.8087
V40     V     0.5   0.1032   0.1913
V41     V     0.5   0.1032   0.5246
V42     V     0.5   0.1032   0.858
V43     V     0.1468   0.75   0.0587
V44     V     0.1468   0.75   0.392
V45     V     0.1468   0.75   0.7254
V46     V     0.3532   0.75   0.108
V47     V     0.3532   0.75   0.4413
V48     V     0.3532   0.75   0.7746
loop_
_geom_bond_atom_site_label_1
_geom_bond_atom_site_label_2
_geom_bond_distance
_geom_bond_site_symmetry_2
_ccdc_geom_bond_type
V1     V4    10.0   .     S
V1     V3    10.0   1_554     S
V1     V2    10.0   .     S
V1     V34    10.0   1_655     S
V1     V22    10.0   1_655     S
V2     V5    10.0   .     S
V2     V3    10.0   .     S
V2     V35    10.0   1_655     S
V2     V23    10.0   1_655     S
V3     V6    10.0   .     S
V3     V1    10.0   1_556     S
V3     V36    10.0   1_655     S
V3     V24    10.0   1_655     S
V4     V6    10.0   1_554     S
V4     V5    10.0   .     S
V4     V40    10.0   .     S
V4     V7    10.0   .     S
V5     V6    10.0   .     S
V5     V41    10.0   .     S
V5     V8    10.0   .     S
V6     V4    10.0   1_556     S
V6     V42    10.0   .     S
V6     V9    10.0   .     S
V7     V10    10.0   .     S
V7     V9    10.0   1_554     S
V7     V8    10.0   .     S
V7     V28    10.0   .     S
V8     V11    10.0   .     S
V8     V9    10.0   .     S
V8     V29    10.0   .     S
V9     V12    10.0   .     S
V9     V7    10.0   1_556     S
V9     V30    10.0   .     S
V10     V11    10.0   .     S
V10     V12    10.0   1_554     S
V10     V13    10.0   .     S
V10     V46    10.0   .     S
V11     V12    10.0   .     S
V11     V14    10.0   .     S
V11     V47    10.0   .     S
V12     V10    10.0   1_556     S
V12     V15    10.0   .     S
V12     V48    10.0   .     S
V13     V16    10.0   .     S
V13     V14    10.0   .     S
V13     V15    10.0   1_554     S
V13     V37    10.0   .     S
V14     V17    10.0   .     S
V14     V15    10.0   .     S
V14     V38    10.0   .     S
V15     V18    10.0   .     S
V15     V13    10.0   1_556     S
V15     V39    10.0   .     S
V16     V17    10.0   .     S
V16     V18    10.0   1_554     S
V16     V19    10.0   1_655     S
V16     V31    10.0   1_655     S
V17     V18    10.0   .     S
V17     V20    10.0   1_655     S
V17     V32    10.0   1_655     S
V18     V16    10.0   1_556     S
V18     V21    10.0   1_655     S
V18     V33    10.0   1_655     S
V19     V24    10.0   1_564     S
V19     V20    10.0   .     S
V19     V21    10.0   1_554     S
V19     V16    10.0   1_455     S
V19     V43    10.0   .     S
V20     V22    10.0   1_565     S
V20     V21    10.0   .     S
V20     V17    10.0   1_455     S
V20     V44    10.0   .     S
V21     V23    10.0   1_565     S
V21     V19    10.0   1_556     S
V21     V18    10.0   1_455     S
V21     V45    10.0   .     S
V22     V20    10.0   1_545     S
V22     V24    10.0   1_554     S
V22     V23    10.0   .     S
V22     V25    10.0   .     S
V22     V1    10.0   1_455     S
V23     V21    10.0   1_545     S
V23     V24    10.0   .     S
V23     V26    10.0   .     S
V23     V2    10.0   1_455     S
V24     V19    10.0   1_546     S
V24     V22    10.0   1_556     S
V24     V27    10.0   .     S
V24     V3    10.0   1_455     S
V25     V28    10.0   .     S
V25     V27    10.0   1_554     S
V25     V26    10.0   .     S
V25     V34    10.0   .     S
V26     V29    10.0   .     S
V26     V27    10.0   .     S
V26     V35    10.0   .     S
V27     V30    10.0   .     S
V27     V25    10.0   1_556     S
V27     V36    10.0   .     S
V28     V30    10.0   1_554     S
V28     V29    10.0   .     S
V28     V40    10.0   .     S
V29     V30    10.0   .     S
V29     V41    10.0   .     S
V30     V28    10.0   1_556     S
V30     V42    10.0   .     S
V31     V36    10.0   1_554     S
V31     V32    10.0   .     S
V31     V33    10.0   1_554     S
V31     V16    10.0   1_455     S
V31     V43    10.0   .     S
V32     V34    10.0   .     S
V32     V33    10.0   .     S
V32     V17    10.0   1_455     S
V32     V44    10.0   .     S
V33     V35    10.0   .     S
V33     V31    10.0   1_556     S
V33     V18    10.0   1_455     S
V33     V45    10.0   .     S
V34     V36    10.0   1_554     S
V34     V35    10.0   .     S
V34     V1    10.0   1_455     S
V35     V36    10.0   .     S
V35     V2    10.0   1_455     S
V36     V31    10.0   1_556     S
V36     V34    10.0   1_556     S
V36     V3    10.0   1_455     S
V37     V40    10.0   1_565     S
V37     V38    10.0   .     S
V37     V39    10.0   1_554     S
V37     V46    10.0   .     S
V38     V41    10.0   1_565     S
V38     V39    10.0   .     S
V38     V47    10.0   .     S
V39     V42    10.0   1_565     S
V39     V37    10.0   1_556     S
V39     V48    10.0   .     S
V40     V37    10.0   1_545     S
V40     V42    10.0   1_554     S
V40     V41    10.0   .     S
V41     V38    10.0   1_545     S
V41     V42    10.0   .     S
V42     V39    10.0   1_545     S
V42     V40    10.0   1_556     S
V43     V46    10.0   .     S
V43     V44    10.0   .     S
V43     V45    10.0   1_554     S
V44     V47    10.0   .     S
V44     V45    10.0   .     S
V45     V48    10.0   .     S
V45     V43    10.0   1_556     S
V46     V47    10.0   .     S
V46     V48    10.0   1_554     S
V47     V48    10.0   .     S
V48     V46    10.0   1_556     S
