data_zfw
_audit_creation_date              2019-12-31
_audit_creation_method            'Pymatgen'
_symmetry_space_group_name_H-M    'P1'
_symmetry_Int_Tables_number       1
loop_
_symmetry_equiv_pos_as_xyz
  x,y,z
_cell_length_a                    44.8536
_cell_length_b                    44.8536
_cell_length_c                    30.0
_cell_angle_alpha                 90.0
_cell_angle_beta                 90.0
_cell_angle_gamma                 90.0
loop_
_atom_site_label
_atom_site_type_symbol
_atom_site_fract_x
_atom_site_fract_y
_atom_site_fract_z
V1     V     0.6493   0.25   0.3216
V2     V     0.6493   0.25   0.6549
V3     V     0.6493   0.25   0.9882
V4     V     0.3507   0.25   0.3216
V5     V     0.3507   0.25   0.6549
V6     V     0.3507   0.25   0.9882
V7     V     0.5   0.1007   0.0951
V8     V     0.5   0.1007   0.4284
V9     V     0.5   0.1007   0.7618
V10     V     0.5   0.3993   0.0951
V11     V     0.5   0.3993   0.4284
V12     V     0.5   0.3993   0.7618
V13     V     0.0   0.1007   0.0716
V14     V     0.0   0.1007   0.4049
V15     V     0.0   0.1007   0.7382
V16     V     0.8507   0.25   0.1784
V17     V     0.8507   0.25   0.5118
V18     V     0.8507   0.25   0.8451
V19     V     0.0   0.3993   0.0716
V20     V     0.0   0.3993   0.4049
V21     V     0.0   0.3993   0.7382
V22     V     0.1493   0.25   0.1784
V23     V     0.1493   0.25   0.5118
V24     V     0.1493   0.25   0.8451
V25     V     0.0   0.6007   0.2618
V26     V     0.0   0.6007   0.5951
V27     V     0.0   0.6007   0.9284
V28     V     0.0   0.8993   0.2618
V29     V     0.0   0.8993   0.5951
V30     V     0.0   0.8993   0.9284
V31     V     0.8507   0.75   0.1549
V32     V     0.8507   0.75   0.4882
V33     V     0.8507   0.75   0.8216
V34     V     0.1493   0.75   0.1549
V35     V     0.1493   0.75   0.4882
V36     V     0.1493   0.75   0.8216
V37     V     0.3507   0.75   0.0118
V38     V     0.3507   0.75   0.3451
V39     V     0.3507   0.75   0.6784
V40     V     0.6493   0.75   0.0118
V41     V     0.6493   0.75   0.3451
V42     V     0.6493   0.75   0.6784
V43     V     0.5   0.6007   0.2382
V44     V     0.5   0.6007   0.5716
V45     V     0.5   0.6007   0.9049
V46     V     0.5   0.8993   0.2382
V47     V     0.5   0.8993   0.5716
V48     V     0.5   0.8993   0.9049
loop_
_geom_bond_atom_site_label_1
_geom_bond_atom_site_label_2
_geom_bond_distance
_geom_bond_site_symmetry_2
_ccdc_geom_bond_type
V1     V8    10.0   .     S
V1     V11    10.0   .     S
V1     V3    10.0   1_554     S
V1     V2    10.0   .     S
V1     V16    10.0   .     S
V2     V9    10.0   .     S
V2     V12    10.0   .     S
V2     V3    10.0   .     S
V2     V17    10.0   .     S
V3     V7    10.0   1_556     S
V3     V10    10.0   1_556     S
V3     V1    10.0   1_556     S
V3     V18    10.0   .     S
V4     V8    10.0   .     S
V4     V11    10.0   .     S
V4     V6    10.0   1_554     S
V4     V5    10.0   .     S
V4     V22    10.0   .     S
V5     V9    10.0   .     S
V5     V12    10.0   .     S
V5     V6    10.0   .     S
V5     V23    10.0   .     S
V6     V7    10.0   1_556     S
V6     V10    10.0   1_556     S
V6     V4    10.0   1_556     S
V6     V24    10.0   .     S
V7     V3    10.0   1_554     S
V7     V6    10.0   1_554     S
V7     V8    10.0   .     S
V7     V9    10.0   1_554     S
V7     V46    10.0   1_545     S
V8     V9    10.0   .     S
V8     V47    10.0   1_545     S
V9     V7    10.0   1_556     S
V9     V48    10.0   1_545     S
V10     V3    10.0   1_554     S
V10     V6    10.0   1_554     S
V10     V11    10.0   .     S
V10     V12    10.0   1_554     S
V10     V43    10.0   .     S
V11     V12    10.0   .     S
V11     V44    10.0   .     S
V12     V10    10.0   1_556     S
V12     V45    10.0   .     S
V13     V16    10.0   1_455     S
V13     V22    10.0   .     S
V13     V14    10.0   .     S
V13     V15    10.0   1_554     S
V13     V30    10.0   1_544     S
V14     V17    10.0   1_455     S
V14     V23    10.0   .     S
V14     V15    10.0   .     S
V14     V28    10.0   1_545     S
V15     V18    10.0   1_455     S
V15     V24    10.0   .     S
V15     V13    10.0   1_556     S
V15     V29    10.0   1_545     S
V16     V13    10.0   1_655     S
V16     V19    10.0   1_655     S
V16     V18    10.0   1_554     S
V16     V17    10.0   .     S
V17     V14    10.0   1_655     S
V17     V20    10.0   1_655     S
V17     V18    10.0   .     S
V18     V15    10.0   1_655     S
V18     V21    10.0   1_655     S
V18     V16    10.0   1_556     S
V19     V16    10.0   1_455     S
V19     V22    10.0   .     S
V19     V20    10.0   .     S
V19     V21    10.0   1_554     S
V19     V27    10.0   1_554     S
V20     V17    10.0   1_455     S
V20     V23    10.0   .     S
V20     V21    10.0   .     S
V20     V25    10.0   .     S
V21     V18    10.0   1_455     S
V21     V24    10.0   .     S
V21     V19    10.0   1_556     S
V21     V26    10.0   .     S
V22     V24    10.0   1_554     S
V22     V23    10.0   .     S
V23     V24    10.0   .     S
V24     V22    10.0   1_556     S
V25     V31    10.0   1_455     S
V25     V34    10.0   .     S
V25     V27    10.0   1_554     S
V25     V26    10.0   .     S
V26     V32    10.0   1_455     S
V26     V35    10.0   .     S
V26     V27    10.0   .     S
V27     V19    10.0   1_556     S
V27     V33    10.0   1_455     S
V27     V36    10.0   .     S
V27     V25    10.0   1_556     S
V28     V14    10.0   1_565     S
V28     V31    10.0   1_455     S
V28     V34    10.0   .     S
V28     V30    10.0   1_554     S
V28     V29    10.0   .     S
V29     V15    10.0   1_565     S
V29     V32    10.0   1_455     S
V29     V35    10.0   .     S
V29     V30    10.0   .     S
V30     V13    10.0   1_566     S
V30     V33    10.0   1_455     S
V30     V36    10.0   .     S
V30     V28    10.0   1_556     S
V31     V25    10.0   1_655     S
V31     V28    10.0   1_655     S
V31     V32    10.0   .     S
V31     V33    10.0   1_554     S
V31     V40    10.0   .     S
V32     V26    10.0   1_655     S
V32     V29    10.0   1_655     S
V32     V33    10.0   .     S
V32     V41    10.0   .     S
V33     V27    10.0   1_655     S
V33     V30    10.0   1_655     S
V33     V31    10.0   1_556     S
V33     V42    10.0   .     S
V34     V35    10.0   .     S
V34     V36    10.0   1_554     S
V34     V37    10.0   .     S
V35     V36    10.0   .     S
V35     V38    10.0   .     S
V36     V34    10.0   1_556     S
V36     V39    10.0   .     S
V37     V48    10.0   1_554     S
V37     V45    10.0   1_554     S
V37     V38    10.0   .     S
V37     V39    10.0   1_554     S
V38     V46    10.0   .     S
V38     V43    10.0   .     S
V38     V39    10.0   .     S
V39     V47    10.0   .     S
V39     V44    10.0   .     S
V39     V37    10.0   1_556     S
V40     V48    10.0   1_554     S
V40     V45    10.0   1_554     S
V40     V41    10.0   .     S
V40     V42    10.0   1_554     S
V41     V46    10.0   .     S
V41     V43    10.0   .     S
V41     V42    10.0   .     S
V42     V47    10.0   .     S
V42     V44    10.0   .     S
V42     V40    10.0   1_556     S
V43     V45    10.0   1_554     S
V43     V44    10.0   .     S
V44     V45    10.0   .     S
V45     V40    10.0   1_556     S
V45     V37    10.0   1_556     S
V45     V43    10.0   1_556     S
V46     V7    10.0   1_565     S
V46     V48    10.0   1_554     S
V46     V47    10.0   .     S
V47     V8    10.0   1_565     S
V47     V48    10.0   .     S
V48     V9    10.0   1_565     S
V48     V37    10.0   1_556     S
V48     V40    10.0   1_556     S
V48     V46    10.0   1_556     S
