data_zfy
_audit_creation_date              2019-12-31
_audit_creation_method            'Pymatgen'
_symmetry_space_group_name_H-M    'P1'
_symmetry_Int_Tables_number       1
loop_
_symmetry_equiv_pos_as_xyz
  x,y,z
_cell_length_a                    32.0671
_cell_length_b                    32.0671
_cell_length_c                    34.6202
_cell_angle_alpha                 90.0
_cell_angle_beta                 90.0
_cell_angle_gamma                 90.0
loop_
_atom_site_label
_atom_site_type_symbol
_atom_site_fract_x
_atom_site_fract_y
_atom_site_fract_z
V1     V     0.4337   0.4239   0.3601
V2     V     0.4337   0.4239   0.8601
V3     V     0.5663   0.5761   0.1399
V4     V     0.5663   0.5761   0.6399
V5     V     0.1739   0.8163   0.2649
V6     V     0.1739   0.8163   0.7649
V7     V     0.3261   0.6837   0.4851
V8     V     0.3261   0.6837   0.9851
V9     V     0.6739   0.8163   0.4851
V10     V     0.6739   0.8163   0.9851
V11     V     0.8261   0.6837   0.2649
V12     V     0.8261   0.6837   0.7649
V13     V     0.5663   0.0761   0.3601
V14     V     0.5663   0.0761   0.8601
V15     V     0.4337   0.9239   0.1399
V16     V     0.4337   0.9239   0.6399
V17     V     0.1739   0.3163   0.2351
V18     V     0.1739   0.3163   0.7351
V19     V     0.3261   0.1837   0.0149
V20     V     0.3261   0.1837   0.5149
V21     V     0.0663   0.0761   0.3899
V22     V     0.0663   0.0761   0.8899
V23     V     0.9337   0.9239   0.1101
V24     V     0.9337   0.9239   0.6101
V25     V     0.9337   0.4239   0.3899
V26     V     0.9337   0.4239   0.8899
V27     V     0.0663   0.5761   0.1101
V28     V     0.0663   0.5761   0.6101
V29     V     0.8261   0.1837   0.2351
V30     V     0.8261   0.1837   0.7351
V31     V     0.6739   0.3163   0.0149
V32     V     0.6739   0.3163   0.5149
loop_
_geom_bond_atom_site_label_1
_geom_bond_atom_site_label_2
_geom_bond_distance
_geom_bond_site_symmetry_2
_ccdc_geom_bond_type
V1     V7    10.0   .     S
V1     V3    10.0   .     S
V1     V32    10.0   .     S
V1     V17    10.0   .     S
V1     V20    10.0   .     S
V2     V8    10.0   .     S
V2     V4    10.0   .     S
V2     V31    10.0   1_556     S
V2     V18    10.0   .     S
V2     V19    10.0   1_556     S
V3     V31    10.0   .     S
V3     V8    10.0   1_554     S
V3     V11    10.0   .     S
V3     V10    10.0   1_554     S
V4     V32    10.0   .     S
V4     V7    10.0   .     S
V4     V12    10.0   .     S
V4     V9    10.0   .     S
V5     V15    10.0   .     S
V5     V7    10.0   .     S
V5     V27    10.0   .     S
V5     V21    10.0   1_565     S
V5     V23    10.0   1_455     S
V6     V16    10.0   .     S
V6     V8    10.0   .     S
V6     V28    10.0   .     S
V6     V22    10.0   1_565     S
V6     V24    10.0   1_455     S
V7     V28    10.0   .     S
V7     V16    10.0   .     S
V8     V3    10.0   1_556     S
V8     V27    10.0   1_556     S
V8     V15    10.0   1_556     S
V9     V24    10.0   .     S
V9     V11    10.0   .     S
V9     V13    10.0   1_565     S
V9     V16    10.0   .     S
V10     V23    10.0   1_556     S
V10     V12    10.0   .     S
V10     V3    10.0   1_556     S
V10     V14    10.0   1_565     S
V10     V15    10.0   1_556     S
V11     V23    10.0   .     S
V11     V25    10.0   .     S
V11     V27    10.0   1_655     S
V12     V24    10.0   .     S
V12     V26    10.0   .     S
V12     V28    10.0   1_655     S
V13     V9    10.0   1_545     S
V13     V15    10.0   1_545     S
V13     V20    10.0   .     S
V13     V29    10.0   .     S
V13     V32    10.0   .     S
V14     V10    10.0   1_545     S
V14     V16    10.0   1_545     S
V14     V19    10.0   1_556     S
V14     V30    10.0   .     S
V14     V31    10.0   1_556     S
V15     V8    10.0   1_554     S
V15     V19    10.0   1_565     S
V15     V13    10.0   1_565     S
V15     V10    10.0   1_554     S
V16     V20    10.0   1_565     S
V16     V14    10.0   1_565     S
V17     V19    10.0   .     S
V17     V21    10.0   .     S
V17     V27    10.0   .     S
V17     V25    10.0   1_455     S
V18     V20    10.0   .     S
V18     V22    10.0   .     S
V18     V28    10.0   .     S
V18     V26    10.0   1_455     S
V19     V15    10.0   1_545     S
V19     V14    10.0   1_554     S
V19     V22    10.0   1_554     S
V19     V2    10.0   1_554     S
V20     V16    10.0   1_545     S
V20     V21    10.0   .     S
V21     V5    10.0   1_545     S
V21     V24    10.0   1_445     S
V21     V29    10.0   1_455     S
V22     V19    10.0   1_556     S
V22     V6    10.0   1_545     S
V22     V23    10.0   1_446     S
V22     V30    10.0   1_455     S
V23     V10    10.0   1_554     S
V23     V29    10.0   1_565     S
V23     V22    10.0   1_664     S
V23     V5    10.0   1_655     S
V24     V30    10.0   1_565     S
V24     V21    10.0   1_665     S
V24     V6    10.0   1_655     S
V25     V28    10.0   1_655     S
V25     V17    10.0   1_655     S
V25     V32    10.0   .     S
V25     V29    10.0   .     S
V26     V27    10.0   1_656     S
V26     V18    10.0   1_655     S
V26     V31    10.0   1_556     S
V26     V30    10.0   .     S
V27     V8    10.0   1_554     S
V27     V26    10.0   1_454     S
V27     V11    10.0   1_455     S
V28     V25    10.0   1_455     S
V28     V12    10.0   1_455     S
V29     V23    10.0   1_545     S
V29     V21    10.0   1_655     S
V29     V31    10.0   .     S
V30     V24    10.0   1_545     S
V30     V22    10.0   1_655     S
V30     V32    10.0   .     S
V31     V2    10.0   1_554     S
V31     V26    10.0   1_554     S
V31     V14    10.0   1_554     S
