data_zfz
_audit_creation_date              2019-12-31
_audit_creation_method            'Pymatgen'
_symmetry_space_group_name_H-M    'P1'
_symmetry_Int_Tables_number       1
loop_
_symmetry_equiv_pos_as_xyz
  x,y,z
_cell_length_a                    39.2608
_cell_length_b                    39.2608
_cell_length_c                    26.714
_cell_angle_alpha                 90.0
_cell_angle_beta                 90.0
_cell_angle_gamma                 120.0
loop_
_atom_site_label
_atom_site_type_symbol
_atom_site_fract_x
_atom_site_fract_y
_atom_site_fract_z
V1     V     0.4005   0.1671   0.4711
V2     V     0.4005   0.6671   0.4711
V3     V     0.9005   0.1671   0.4711
V4     V     0.9005   0.6671   0.4711
V5     V     0.0995   0.2666   0.1956
V6     V     0.0995   0.7666   0.1956
V7     V     0.5995   0.2666   0.1956
V8     V     0.5995   0.7666   0.1956
V9     V     0.3329   0.2334   0.1378
V10     V     0.3329   0.7334   0.1378
V11     V     0.8329   0.2334   0.1378
V12     V     0.8329   0.7334   0.1378
V13     V     0.2334   0.3329   0.8622
V14     V     0.2334   0.8329   0.8622
V15     V     0.7334   0.3329   0.8622
V16     V     0.7334   0.8329   0.8622
V17     V     0.2666   0.0995   0.8044
V18     V     0.2666   0.5995   0.8044
V19     V     0.7666   0.0995   0.8044
V20     V     0.7666   0.5995   0.8044
V21     V     0.1671   0.4005   0.5289
V22     V     0.1671   0.9005   0.5289
V23     V     0.6671   0.4005   0.5289
V24     V     0.6671   0.9005   0.5289
loop_
_geom_bond_atom_site_label_1
_geom_bond_atom_site_label_2
_geom_bond_distance
_geom_bond_site_symmetry_2
_ccdc_geom_bond_type
V1     V23    10.0   .     S
V1     V9    10.0   .     S
V1     V7    10.0   .     S
V1     V17    10.0   .     S
V1     V22    10.0   1_545     S
V2     V24    10.0   .     S
V2     V10    10.0   .     S
V2     V8    10.0   .     S
V2     V18    10.0   .     S
V2     V21    10.0   .     S
V3     V21    10.0   1_655     S
V3     V11    10.0   .     S
V3     V5    10.0   1_655     S
V3     V19    10.0   .     S
V3     V24    10.0   1_545     S
V4     V22    10.0   1_655     S
V4     V12    10.0   .     S
V4     V6    10.0   1_655     S
V4     V20    10.0   .     S
V4     V23    10.0   .     S
V5     V11    10.0   1_455     S
V5     V21    10.0   .     S
V5     V3    10.0   1_455     S
V5     V9    10.0   .     S
V5     V13    10.0   1_554     S
V6     V12    10.0   1_455     S
V6     V22    10.0   .     S
V6     V4    10.0   1_455     S
V6     V10    10.0   .     S
V6     V14    10.0   1_554     S
V7     V9    10.0   .     S
V7     V23    10.0   .     S
V7     V11    10.0   .     S
V7     V15    10.0   1_554     S
V8     V10    10.0   .     S
V8     V24    10.0   .     S
V8     V12    10.0   .     S
V8     V16    10.0   1_554     S
V9     V17    10.0   1_554     S
V9     V13    10.0   1_554     S
V10     V18    10.0   1_554     S
V10     V14    10.0   1_554     S
V11     V5    10.0   1_655     S
V11     V19    10.0   1_554     S
V11     V15    10.0   1_554     S
V12     V6    10.0   1_655     S
V12     V20    10.0   1_554     S
V12     V16    10.0   1_554     S
V13     V9    10.0   1_556     S
V13     V17    10.0   .     S
V13     V5    10.0   1_556     S
V13     V18    10.0   .     S
V13     V21    10.0   .     S
V14     V10    10.0   1_556     S
V14     V18    10.0   .     S
V14     V6    10.0   1_556     S
V14     V17    10.0   1_565     S
V14     V22    10.0   .     S
V15     V11    10.0   1_556     S
V15     V19    10.0   .     S
V15     V7    10.0   1_556     S
V15     V20    10.0   .     S
V15     V23    10.0   .     S
V16     V12    10.0   1_556     S
V16     V20    10.0   .     S
V16     V8    10.0   1_556     S
V16     V19    10.0   1_565     S
V16     V24    10.0   .     S
V17     V9    10.0   1_556     S
V17     V14    10.0   1_545     S
V17     V22    10.0   1_545     S
V18     V10    10.0   1_556     S
V18     V21    10.0   .     S
V19     V11    10.0   1_556     S
V19     V16    10.0   1_545     S
V19     V24    10.0   1_545     S
V20     V12    10.0   1_556     S
V20     V23    10.0   .     S
V21     V3    10.0   1_455     S
V22     V4    10.0   1_455     S
V22     V1    10.0   1_565     S
V22     V17    10.0   1_565     S
V24     V3    10.0   1_565     S
V24     V19    10.0   1_565     S
