data_zhl
_audit_creation_date              2019-12-31
_audit_creation_method            'Pymatgen'
_symmetry_space_group_name_H-M    'P1'
_symmetry_Int_Tables_number       1
loop_
_symmetry_equiv_pos_as_xyz
  x,y,z
_cell_length_a                    34.641
_cell_length_b                    33.5569
_cell_length_c                    31.5721
_cell_angle_alpha                 90.0
_cell_angle_beta                 100.5925
_cell_angle_gamma                 90.0
loop_
_atom_site_label
_atom_site_type_symbol
_atom_site_fract_x
_atom_site_fract_y
_atom_site_fract_z
V1     V     0.2304   0.9255   0.1316
V2     V     0.7304   0.9255   0.1316
Er3     Er     0.2304   0.2235   0.1316
Er4     Er     0.7304   0.2235   0.1316
V5     V     0.0196   0.9255   0.8685
V6     V     0.5196   0.9255   0.8685
Er7     Er     0.0196   0.2235   0.8685
Er8     Er     0.5196   0.2235   0.8685
V9     V     0.4804   0.0745   0.1316
V10     V     0.9804   0.0745   0.1316
Er11     Er     0.4804   0.7765   0.1316
Er12     Er     0.9804   0.7765   0.1316
V13     V     0.2696   0.0745   0.8685
V14     V     0.7696   0.0745   0.8685
Er15     Er     0.2696   0.7765   0.8685
Er16     Er     0.7696   0.7765   0.8685
V17     V     0.2304   0.5745   0.6316
V18     V     0.7304   0.5745   0.6316
Er19     Er     0.2304   0.2765   0.6316
Er20     Er     0.7304   0.2765   0.6316
V21     V     0.0196   0.5745   0.3685
V22     V     0.5196   0.5745   0.3685
Er23     Er     0.0196   0.2765   0.3685
Er24     Er     0.5196   0.2765   0.3685
V25     V     0.4804   0.4255   0.6316
V26     V     0.9804   0.4255   0.6316
Er27     Er     0.4804   0.7235   0.6316
Er28     Er     0.9804   0.7235   0.6316
V29     V     0.2696   0.4255   0.3685
V30     V     0.7696   0.4255   0.3685
Er31     Er     0.2696   0.7235   0.3685
Er32     Er     0.7696   0.7235   0.3685
loop_
_geom_bond_atom_site_label_1
_geom_bond_atom_site_label_2
_geom_bond_distance
_geom_bond_site_symmetry_2
_ccdc_geom_bond_type
V1     Er3    10.0   1_565     S
V1     V5    10.0   1_554     S
V1     Er11    10.0   .     S
V1     V9    10.0   1_565     S
V1     V13    10.0   1_564     S
V1     Er15    10.0   1_554     S
V1     V10    10.0   1_465     S
V1     Er31    10.0   .     S
V2     Er4    10.0   1_565     S
V2     V6    10.0   1_554     S
V2     Er12    10.0   .     S
V2     V10    10.0   1_565     S
V2     V14    10.0   1_564     S
V2     Er16    10.0   1_554     S
V2     V9    10.0   1_565     S
V2     Er32    10.0   .     S
Er3     V1    10.0   1_545     S
Er3     Er7    10.0   1_554     S
Er3     V13    10.0   1_554     S
Er3     V10    10.0   1_455     S
Er3     V29    10.0   .     S
Er4     V2    10.0   1_545     S
Er4     Er8    10.0   1_554     S
Er4     V14    10.0   1_554     S
Er4     V9    10.0   .     S
Er4     V30    10.0   .     S
V5     Er7    10.0   1_565     S
V5     V1    10.0   1_556     S
V5     V13    10.0   1_565     S
V5     V10    10.0   1_466     S
V5     Er12    10.0   1_456     S
V5     Er16    10.0   1_455     S
V5     V14    10.0   1_465     S
V5     Er28    10.0   1_455     S
V6     Er8    10.0   1_565     S
V6     V2    10.0   1_556     S
V6     V14    10.0   1_565     S
V6     V9    10.0   1_566     S
V6     Er11    10.0   1_556     S
V6     Er15    10.0   .     S
V6     V13    10.0   1_565     S
V6     Er27    10.0   .     S
Er7     V5    10.0   1_545     S
Er7     Er3    10.0   1_556     S
Er7     V13    10.0   .     S
Er7     V10    10.0   1_456     S
Er7     V26    10.0   1_455     S
Er8     V6    10.0   1_545     S
Er8     Er4    10.0   1_556     S
Er8     V14    10.0   .     S
Er8     V9    10.0   1_556     S
Er8     V25    10.0   .     S
V9     V1    10.0   1_545     S
V9     Er11    10.0   1_545     S
V9     V13    10.0   1_554     S
V9     V2    10.0   1_545     S
V9     V6    10.0   1_544     S
V9     Er8    10.0   1_554     S
V9     Er24    10.0   .     S
V10     V2    10.0   1_545     S
V10     Er12    10.0   1_545     S
V10     V14    10.0   1_554     S
V10     Er3    10.0   1_655     S
V10     V1    10.0   1_645     S
V10     V5    10.0   1_644     S
V10     Er7    10.0   1_654     S
V10     Er23    10.0   1_655     S
Er11     V9    10.0   1_565     S
Er11     Er15    10.0   1_554     S
Er11     V6    10.0   1_554     S
Er11     V22    10.0   .     S
Er12     V10    10.0   1_565     S
Er12     Er16    10.0   1_554     S
Er12     V5    10.0   1_654     S
Er12     V21    10.0   1_655     S
V13     V5    10.0   1_545     S
V13     V1    10.0   1_546     S
V13     Er3    10.0   1_556     S
V13     Er15    10.0   1_545     S
V13     V9    10.0   1_556     S
V13     V6    10.0   1_545     S
V13     Er19    10.0   .     S
V14     V6    10.0   1_545     S
V14     V2    10.0   1_546     S
V14     Er4    10.0   1_556     S
V14     Er16    10.0   1_545     S
V14     V10    10.0   1_556     S
V14     V5    10.0   1_645     S
V14     Er20    10.0   .     S
Er15     V1    10.0   1_556     S
Er15     V13    10.0   1_565     S
Er15     Er11    10.0   1_556     S
Er15     V17    10.0   .     S
Er16     V2    10.0   1_556     S
Er16     V14    10.0   1_565     S
Er16     Er12    10.0   1_556     S
Er16     V5    10.0   1_655     S
Er16     V18    10.0   .     S
V17     Er27    10.0   .     S
V17     V25    10.0   .     S
V17     V29    10.0   .     S
V17     Er31    10.0   .     S
V17     Er19    10.0   .     S
V17     V21    10.0   .     S
V17     V26    10.0   1_455     S
V18     Er28    10.0   .     S
V18     V26    10.0   .     S
V18     V30    10.0   .     S
V18     Er32    10.0   .     S
V18     Er20    10.0   .     S
V18     V22    10.0   .     S
V18     V25    10.0   .     S
Er19     V29    10.0   .     S
Er19     Er23    10.0   .     S
Er19     V26    10.0   1_455     S
Er20     V30    10.0   .     S
Er20     Er24    10.0   .     S
Er20     V25    10.0   .     S
V21     V29    10.0   .     S
V21     Er23    10.0   .     S
V21     V26    10.0   1_455     S
V21     Er28    10.0   1_455     S
V21     Er32    10.0   1_455     S
V21     V30    10.0   1_455     S
V21     Er12    10.0   1_455     S
V22     V30    10.0   .     S
V22     Er24    10.0   .     S
V22     V25    10.0   .     S
V22     Er27    10.0   .     S
V22     Er31    10.0   .     S
V22     V29    10.0   .     S
Er23     V29    10.0   .     S
Er23     V26    10.0   1_455     S
Er23     V10    10.0   1_455     S
Er24     V30    10.0   .     S
Er24     V25    10.0   .     S
V25     Er27    10.0   .     S
V25     V29    10.0   .     S
V26     Er28    10.0   .     S
V26     V30    10.0   .     S
V26     Er19    10.0   1_655     S
V26     V17    10.0   1_655     S
V26     V21    10.0   1_655     S
V26     Er23    10.0   1_655     S
V26     Er7    10.0   1_655     S
Er27     Er31    10.0   .     S
Er28     Er32    10.0   .     S
Er28     V21    10.0   1_655     S
Er28     V5    10.0   1_655     S
V29     Er31    10.0   .     S
V30     Er32    10.0   .     S
V30     V21    10.0   1_655     S
Er32     V21    10.0   1_655     S
