data_zim
_audit_creation_date              2019-12-31
_audit_creation_method            'Pymatgen'
_symmetry_space_group_name_H-M    'P1'
_symmetry_Int_Tables_number       1
loop_
_symmetry_equiv_pos_as_xyz
  x,y,z
_cell_length_a                    28.8489
_cell_length_b                    37.548
_cell_length_c                    24.221
_cell_angle_alpha                 90.0
_cell_angle_beta                 98.6191
_cell_angle_gamma                 90.0
loop_
_atom_site_label
_atom_site_type_symbol
_atom_site_fract_x
_atom_site_fract_y
_atom_site_fract_z
Er1     Er     0.25   0.75   0.1
Er2     Er     0.25   0.75   0.3
Er3     Er     0.25   0.75   0.5
Er4     Er     0.25   0.75   0.7
Er5     Er     0.25   0.75   0.9
Er6     Er     0.5833   0.75   0.1
Er7     Er     0.5833   0.75   0.3
Er8     Er     0.5833   0.75   0.5
Er9     Er     0.5833   0.75   0.7
Er10     Er     0.5833   0.75   0.9
Er11     Er     0.9167   0.75   0.1
Er12     Er     0.9167   0.75   0.3
Er13     Er     0.9167   0.75   0.5
Er14     Er     0.9167   0.75   0.7
Er15     Er     0.9167   0.75   0.9
Er16     Er     0.0833   0.75   0.1
Er17     Er     0.0833   0.75   0.3
Er18     Er     0.0833   0.75   0.5
Er19     Er     0.0833   0.75   0.7
Er20     Er     0.0833   0.75   0.9
Er21     Er     0.4167   0.75   0.1
Er22     Er     0.4167   0.75   0.3
Er23     Er     0.4167   0.75   0.5
Er24     Er     0.4167   0.75   0.7
Er25     Er     0.4167   0.75   0.9
Er26     Er     0.75   0.75   0.1
Er27     Er     0.75   0.75   0.3
Er28     Er     0.75   0.75   0.5
Er29     Er     0.75   0.75   0.7
Er30     Er     0.75   0.75   0.9
Er31     Er     0.0833   0.25   0.1
Er32     Er     0.0833   0.25   0.3
Er33     Er     0.0833   0.25   0.5
Er34     Er     0.0833   0.25   0.7
Er35     Er     0.0833   0.25   0.9
Er36     Er     0.4167   0.25   0.1
Er37     Er     0.4167   0.25   0.3
Er38     Er     0.4167   0.25   0.5
Er39     Er     0.4167   0.25   0.7
Er40     Er     0.4167   0.25   0.9
Er41     Er     0.75   0.25   0.1
Er42     Er     0.75   0.25   0.3
Er43     Er     0.75   0.25   0.5
Er44     Er     0.75   0.25   0.7
Er45     Er     0.75   0.25   0.9
Er46     Er     0.25   0.25   0.1
Er47     Er     0.25   0.25   0.3
Er48     Er     0.25   0.25   0.5
Er49     Er     0.25   0.25   0.7
Er50     Er     0.25   0.25   0.9
Er51     Er     0.5833   0.25   0.1
Er52     Er     0.5833   0.25   0.3
Er53     Er     0.5833   0.25   0.5
Er54     Er     0.5833   0.25   0.7
Er55     Er     0.5833   0.25   0.9
Er56     Er     0.9167   0.25   0.1
Er57     Er     0.9167   0.25   0.3
Er58     Er     0.9167   0.25   0.5
Er59     Er     0.9167   0.25   0.7
Er60     Er     0.9167   0.25   0.9
V61     V     0.0   0.0   0.0
V62     V     1.0   0.0   0.2
V63     V     1.0   0.0   0.4
V64     V     1.0   0.0   0.6
V65     V     1.0   0.0   0.8
V66     V     0.3333   0.0   0.0
V67     V     0.3333   0.0   0.2
V68     V     0.3333   0.0   0.4
V69     V     0.3333   0.0   0.6
V70     V     0.3333   0.0   0.8
V71     V     0.6667   0.0   0.0
V72     V     0.6667   0.0   0.2
V73     V     0.6667   0.0   0.4
V74     V     0.6667   0.0   0.6
V75     V     0.6667   0.0   0.8
V76     V     0.1667   0.5   0.0
V77     V     0.1667   0.5   0.2
V78     V     0.1667   0.5   0.4
V79     V     0.1667   0.5   0.6
V80     V     0.1667   0.5   0.8
V81     V     0.5   0.5   0.0
V82     V     0.5   0.5   0.2
V83     V     0.5   0.5   0.4
V84     V     0.5   0.5   0.6
V85     V     0.5   0.5   0.8
V86     V     0.8333   0.5   0.0
V87     V     0.8333   0.5   0.2
V88     V     0.8333   0.5   0.4
V89     V     0.8333   0.5   0.6
V90     V     0.8333   0.5   0.8
loop_
_geom_bond_atom_site_label_1
_geom_bond_atom_site_label_2
_geom_bond_distance
_geom_bond_site_symmetry_2
_ccdc_geom_bond_type
Er1     V76    9.9   .     S
Er1     V67    9.9   1_565     S
Er1     V77    10.075   .     S
Er1     V66    10.075   1_565     S
Er2     V77    9.9   .     S
Er2     V68    9.9   1_565     S
Er2     V78    10.075   .     S
Er2     V67    10.075   1_565     S
Er3     V78    9.9   .     S
Er3     V69    9.9   1_565     S
Er3     V79    10.075   .     S
Er3     V68    10.075   1_565     S
Er4     V79    9.9   .     S
Er4     V70    9.9   1_565     S
Er4     V80    10.075   .     S
Er4     V69    10.075   1_565     S
Er5     V80    9.9   .     S
Er5     V66    9.9   1_566     S
Er5     V76    10.075   1_556     S
Er5     V70    10.075   1_565     S
Er6     V81    9.9   .     S
Er6     V72    9.9   1_565     S
Er6     V82    10.075   .     S
Er6     V71    10.075   1_565     S
Er7     V82    9.9   .     S
Er7     V73    9.9   1_565     S
Er7     V83    10.075   .     S
Er7     V72    10.075   1_565     S
Er8     V83    9.9   .     S
Er8     V74    9.9   1_565     S
Er8     V84    10.075   .     S
Er8     V73    10.075   1_565     S
Er9     V84    9.9   .     S
Er9     V75    9.9   1_565     S
Er9     V85    10.075   .     S
Er9     V74    10.075   1_565     S
Er10     V85    9.9   .     S
Er10     V71    9.9   1_566     S
Er10     V81    10.075   1_556     S
Er10     V75    10.075   1_565     S
Er11     V86    9.9   .     S
Er11     V62    9.9   1_565     S
Er11     V87    10.075   .     S
Er11     V61    10.075   1_665     S
Er12     V87    9.9   .     S
Er12     V63    9.9   1_565     S
Er12     V88    10.075   .     S
Er12     V62    10.075   1_565     S
Er13     V88    9.9   .     S
Er13     V64    9.9   1_565     S
Er13     V89    10.075   .     S
Er13     V63    10.075   1_565     S
Er14     V89    9.9   .     S
Er14     V65    9.9   1_565     S
Er14     V90    10.075   .     S
Er14     V64    10.075   1_565     S
Er15     V90    9.9   .     S
Er15     V61    9.9   1_666     S
Er15     V86    10.075   1_556     S
Er15     V65    10.075   1_565     S
Er16     V77    9.9   .     S
Er16     V61    9.9   1_565     S
Er16     V76    10.075   .     S
Er16     V62    10.075   1_465     S
Er17     V78    9.9   .     S
Er17     V62    9.9   1_465     S
Er17     V77    10.075   .     S
Er17     V63    10.075   1_465     S
Er18     V79    9.9   .     S
Er18     V63    9.9   1_465     S
Er18     V78    10.075   .     S
Er18     V64    10.075   1_465     S
Er19     V80    9.9   .     S
Er19     V64    9.9   1_465     S
Er19     V79    10.075   .     S
Er19     V65    10.075   1_465     S
Er20     V76    9.9   1_556     S
Er20     V65    9.9   1_465     S
Er20     V80    10.075   .     S
Er20     V61    10.075   1_566     S
Er21     V82    9.9   .     S
Er21     V66    9.9   1_565     S
Er21     V81    10.075   .     S
Er21     V67    10.075   1_565     S
Er22     V83    9.9   .     S
Er22     V67    9.9   1_565     S
Er22     V82    10.075   .     S
Er22     V68    10.075   1_565     S
Er23     V84    9.9   .     S
Er23     V68    9.9   1_565     S
Er23     V83    10.075   .     S
Er23     V69    10.075   1_565     S
Er24     V85    9.9   .     S
Er24     V69    9.9   1_565     S
Er24     V84    10.075   .     S
Er24     V70    10.075   1_565     S
Er25     V81    9.9   1_556     S
Er25     V70    9.9   1_565     S
Er25     V85    10.075   .     S
Er25     V66    10.075   1_566     S
Er26     V87    9.9   .     S
Er26     V71    9.9   1_565     S
Er26     V86    10.075   .     S
Er26     V72    10.075   1_565     S
Er27     V88    9.9   .     S
Er27     V72    9.9   1_565     S
Er27     V87    10.075   .     S
Er27     V73    10.075   1_565     S
Er28     V89    9.9   .     S
Er28     V73    9.9   1_565     S
Er28     V88    10.075   .     S
Er28     V74    10.075   1_565     S
Er29     V90    9.9   .     S
Er29     V74    9.9   1_565     S
Er29     V89    10.075   .     S
Er29     V75    10.075   1_565     S
Er30     V86    9.9   1_556     S
Er30     V75    9.9   1_565     S
Er30     V90    10.075   .     S
Er30     V71    10.075   1_566     S
Er31     V77    9.9   .     S
Er31     V61    9.9   .     S
Er31     V76    10.075   .     S
Er31     V62    10.075   1_455     S
Er32     V78    9.9   .     S
Er32     V62    9.9   1_455     S
Er32     V77    10.075   .     S
Er32     V63    10.075   1_455     S
Er33     V79    9.9   .     S
Er33     V63    9.9   1_455     S
Er33     V78    10.075   .     S
Er33     V64    10.075   1_455     S
Er34     V80    9.9   .     S
Er34     V64    9.9   1_455     S
Er34     V79    10.075   .     S
Er34     V65    10.075   1_455     S
Er35     V76    9.9   1_556     S
Er35     V65    9.9   1_455     S
Er35     V80    10.075   .     S
Er35     V61    10.075   1_556     S
Er36     V82    9.9   .     S
Er36     V66    9.9   .     S
Er36     V81    10.075   .     S
Er36     V67    10.075   .     S
Er37     V83    9.9   .     S
Er37     V67    9.9   .     S
Er37     V82    10.075   .     S
Er37     V68    10.075   .     S
Er38     V84    9.9   .     S
Er38     V68    9.9   .     S
Er38     V83    10.075   .     S
Er38     V69    10.075   .     S
Er39     V85    9.9   .     S
Er39     V69    9.9   .     S
Er39     V84    10.075   .     S
Er39     V70    10.075   .     S
Er40     V81    9.9   1_556     S
Er40     V70    9.9   .     S
Er40     V85    10.075   .     S
Er40     V66    10.075   1_556     S
Er41     V87    9.9   .     S
Er41     V71    9.9   .     S
Er41     V86    10.075   .     S
Er41     V72    10.075   .     S
Er42     V88    9.9   .     S
Er42     V72    9.9   .     S
Er42     V87    10.075   .     S
Er42     V73    10.075   .     S
Er43     V89    9.9   .     S
Er43     V73    9.9   .     S
Er43     V88    10.075   .     S
Er43     V74    10.075   .     S
Er44     V90    9.9   .     S
Er44     V74    9.9   .     S
Er44     V89    10.075   .     S
Er44     V75    10.075   .     S
Er45     V86    9.9   1_556     S
Er45     V75    9.9   .     S
Er45     V90    10.075   .     S
Er45     V71    10.075   1_556     S
Er46     V76    9.9   .     S
Er46     V67    9.9   .     S
Er46     V77    10.075   .     S
Er46     V66    10.075   .     S
Er47     V77    9.9   .     S
Er47     V68    9.9   .     S
Er47     V78    10.075   .     S
Er47     V67    10.075   .     S
Er48     V78    9.9   .     S
Er48     V69    9.9   .     S
Er48     V79    10.075   .     S
Er48     V68    10.075   .     S
Er49     V79    9.9   .     S
Er49     V70    9.9   .     S
Er49     V80    10.075   .     S
Er49     V69    10.075   .     S
Er50     V80    9.9   .     S
Er50     V66    9.9   1_556     S
Er50     V76    10.075   1_556     S
Er50     V70    10.075   .     S
Er51     V81    9.9   .     S
Er51     V72    9.9   .     S
Er51     V82    10.075   .     S
Er51     V71    10.075   .     S
Er52     V82    9.9   .     S
Er52     V73    9.9   .     S
Er52     V83    10.075   .     S
Er52     V72    10.075   .     S
Er53     V83    9.9   .     S
Er53     V74    9.9   .     S
Er53     V84    10.075   .     S
Er53     V73    10.075   .     S
Er54     V84    9.9   .     S
Er54     V75    9.9   .     S
Er54     V85    10.075   .     S
Er54     V74    10.075   .     S
Er55     V85    9.9   .     S
Er55     V71    9.9   1_556     S
Er55     V81    10.075   1_556     S
Er55     V75    10.075   .     S
Er56     V86    9.9   .     S
Er56     V62    9.9   .     S
Er56     V87    10.075   .     S
Er56     V61    10.075   1_655     S
Er57     V87    9.9   .     S
Er57     V63    9.9   .     S
Er57     V88    10.075   .     S
Er57     V62    10.075   .     S
Er58     V88    9.9   .     S
Er58     V64    9.9   .     S
Er58     V89    10.075   .     S
Er58     V63    10.075   .     S
Er59     V89    9.9   .     S
Er59     V65    9.9   .     S
Er59     V90    10.075   .     S
Er59     V64    10.075   .     S
Er60     V90    9.9   .     S
Er60     V61    9.9   1_656     S
Er60     V86    10.075   1_556     S
Er60     V65    10.075   .     S
V61     V67    10.098   .     S
V61     V75    10.098   1_454     S
V61     Er15    9.9   1_444     S
V61     Er16    9.9   1_545     S
V61     Er60    9.9   1_454     S
V61     Er20    10.075   1_544     S
V61     Er11    10.075   1_445     S
V61     Er56    10.075   1_455     S
V61     Er35    10.075   1_554     S
V62     V68    10.098   1_655     S
V62     V71    10.098   .     S
V62     Er11    9.9   1_545     S
V62     Er17    9.9   1_645     S
V62     Er32    9.9   1_655     S
V62     Er16    10.075   1_645     S
V62     Er12    10.075   1_545     S
V62     Er31    10.075   1_655     S
V63     V69    10.098   1_655     S
V63     V72    10.098   .     S
V63     Er12    9.9   1_545     S
V63     Er18    9.9   1_645     S
V63     Er33    9.9   1_655     S
V63     Er17    10.075   1_645     S
V63     Er13    10.075   1_545     S
V63     Er32    10.075   1_655     S
V64     V70    10.098   1_655     S
V64     V73    10.098   .     S
V64     Er13    9.9   1_545     S
V64     Er19    9.9   1_645     S
V64     Er34    9.9   1_655     S
V64     Er18    10.075   1_645     S
V64     Er14    10.075   1_545     S
V64     Er33    10.075   1_655     S
V65     V66    10.098   1_656     S
V65     V74    10.098   .     S
V65     Er14    9.9   1_545     S
V65     Er20    9.9   1_645     S
V65     Er35    9.9   1_655     S
V65     Er19    10.075   1_645     S
V65     Er15    10.075   1_545     S
V65     Er34    10.075   1_655     S
V66     V65    10.098   1_454     S
V66     V72    10.098   .     S
V66     Er5    9.9   1_544     S
V66     Er21    9.9   1_545     S
V66     Er50    9.9   1_554     S
V66     Er25    10.075   1_544     S
V66     Er1    10.075   1_545     S
V66     Er40    10.075   1_554     S
V67     V73    10.098   .     S
V67     Er1    9.9   1_545     S
V67     Er22    9.9   1_545     S
V67     Er21    10.075   1_545     S
V67     Er2    10.075   1_545     S
V68     V62    10.098   1_455     S
V68     V74    10.098   .     S
V68     Er2    9.9   1_545     S
V68     Er23    9.9   1_545     S
V68     Er22    10.075   1_545     S
V68     Er3    10.075   1_545     S
V69     V63    10.098   1_455     S
V69     V75    10.098   .     S
V69     Er3    9.9   1_545     S
V69     Er24    9.9   1_545     S
V69     Er23    10.075   1_545     S
V69     Er4    10.075   1_545     S
V70     V64    10.098   1_455     S
V70     V71    10.098   1_556     S
V70     Er4    9.9   1_545     S
V70     Er25    9.9   1_545     S
V70     Er24    10.075   1_545     S
V70     Er5    10.075   1_545     S
V71     V70    10.098   1_554     S
V71     Er10    9.9   1_544     S
V71     Er26    9.9   1_545     S
V71     Er55    9.9   1_554     S
V71     Er30    10.075   1_544     S
V71     Er6    10.075   1_545     S
V71     Er45    10.075   1_554     S
V72     Er6    9.9   1_545     S
V72     Er27    9.9   1_545     S
V72     Er26    10.075   1_545     S
V72     Er7    10.075   1_545     S
V73     Er7    9.9   1_545     S
V73     Er28    9.9   1_545     S
V73     Er27    10.075   1_545     S
V73     Er8    10.075   1_545     S
V74     Er8    9.9   1_545     S
V74     Er29    9.9   1_545     S
V74     Er28    10.075   1_545     S
V74     Er9    10.075   1_545     S
V75     V61    10.098   1_656     S
V75     Er9    9.9   1_545     S
V75     Er30    9.9   1_545     S
V75     Er29    10.075   1_545     S
V75     Er10    10.075   1_545     S
V76     V90    10.098   1_454     S
V76     V82    10.098   .     S
V76     Er35    9.9   1_554     S
V76     Er20    9.9   1_554     S
V76     Er50    10.075   1_554     S
V76     Er5    10.075   1_554     S
V77     V86    10.098   1_455     S
V77     V83    10.098   .     S
V78     V87    10.098   1_455     S
V78     V84    10.098   .     S
V79     V88    10.098   1_455     S
V79     V85    10.098   .     S
V80     V89    10.098   1_455     S
V80     V81    10.098   1_556     S
V81     V80    10.098   1_554     S
V81     V87    10.098   .     S
V81     Er40    9.9   1_554     S
V81     Er25    9.9   1_554     S
V81     Er55    10.075   1_554     S
V81     Er10    10.075   1_554     S
V82     V88    10.098   .     S
V83     V89    10.098   .     S
V84     V90    10.098   .     S
V85     V86    10.098   1_556     S
V86     V77    10.098   1_655     S
V86     V85    10.098   1_554     S
V86     Er45    9.9   1_554     S
V86     Er30    9.9   1_554     S
V86     Er60    10.075   1_554     S
V86     Er15    10.075   1_554     S
V87     V78    10.098   1_655     S
V88     V79    10.098   1_655     S
V89     V80    10.098   1_655     S
V90     V76    10.098   1_656     S
