data_zkf
_audit_creation_date              2019-12-31
_audit_creation_method            'Pymatgen'
_symmetry_space_group_name_H-M    'P1'
_symmetry_Int_Tables_number       1
loop_
_symmetry_equiv_pos_as_xyz
  x,y,z
_cell_length_a                    37.9526
_cell_length_b                    62.6764
_cell_length_c                    39.9236
_cell_angle_alpha                 90.0
_cell_angle_beta                 102.5872
_cell_angle_gamma                 90.0
loop_
_atom_site_label
_atom_site_type_symbol
_atom_site_fract_x
_atom_site_fract_y
_atom_site_fract_z
Er1     Er     0.3652   0.5895   0.095
Er2     Er     0.3651   0.5895   0.595
Er3     Er     0.6348   0.5895   0.155
Er4     Er     0.6348   0.5895   0.655
V5     V     0.5   0.7276   0.125
V6     V     0.5   0.7276   0.625
Er7     Er     0.3651   0.4105   0.345
Er8     Er     0.3651   0.4105   0.845
Er9     Er     0.6349   0.4105   0.405
Er10     Er     0.6349   0.4105   0.905
V11     V     0.5   0.2724   0.375
V12     V     0.5   0.2724   0.875
Ti13     Ti     0.633   0.0078   0.0445
Ti14     Ti     0.633   0.0078   0.5445
Ti15     Ti     0.367   0.0078   0.2055
Ti16     Ti     0.367   0.0078   0.7055
Ce17     Ce     0.5   0.1126   0.375
Ce18     Ce     0.5   0.1126   0.875
Ti19     Ti     0.633   0.9922   0.2945
Ti20     Ti     0.633   0.9922   0.7945
Ti21     Ti     0.367   0.9922   0.4555
Ti22     Ti     0.367   0.9922   0.9555
Ce23     Ce     0.5   0.8874   0.125
Ce24     Ce     0.5   0.8874   0.625
Er25     Er     0.1348   0.9105   0.405
Er26     Er     0.1348   0.9105   0.905
Er27     Er     0.8652   0.9105   0.345
Er28     Er     0.8652   0.9105   0.845
V29     V     1.0   0.7724   0.375
V30     V     1.0   0.7724   0.875
Er31     Er     0.1348   0.0895   0.155
Er32     Er     0.1348   0.0895   0.655
Er33     Er     0.8652   0.0895   0.095
Er34     Er     0.8652   0.0895   0.595
V35     V     1.0   0.2276   0.125
V36     V     0.0   0.2276   0.625
Ti37     Ti     0.133   0.5078   0.0445
Ti38     Ti     0.133   0.5078   0.5445
Ti39     Ti     0.867   0.5078   0.2055
Ti40     Ti     0.867   0.5078   0.7055
Ce41     Ce     1.0   0.6126   0.375
Ce42     Ce     1.0   0.6126   0.875
Ti43     Ti     0.133   0.4922   0.2945
Ti44     Ti     0.133   0.4922   0.7945
Ti45     Ti     0.867   0.4922   0.4555
Ti46     Ti     0.867   0.4922   0.9555
Ce47     Ce     1.0   0.3874   0.125
Ce48     Ce     0.0   0.3874   0.625
loop_
_geom_bond_atom_site_label_1
_geom_bond_atom_site_label_2
_geom_bond_distance
_geom_bond_site_symmetry_2
_ccdc_geom_bond_type
Er1     Er3    9.991   .     S
Er1     V5    9.995   .     S
Er1     Ti37    10.012   .     S
Er2     Er4    9.991   .     S
Er2     V6    9.995   .     S
Er2     Ti38    10.012   .     S
Er3     V5    9.995   .     S
Er3     Ti39    10.012   .     S
Er4     V6    9.995   .     S
Er4     Ti40    10.012   .     S
V5     Ce23    10.011   .     S
V6     Ce24    10.011   .     S
Er7     Er9    9.991   .     S
Er7     V11    9.995   .     S
Er7     Ti43    10.012   .     S
Er8     Er10    9.991   .     S
Er8     V12    9.995   .     S
Er8     Ti44    10.012   .     S
Er9     V11    9.995   .     S
Er9     Ti45    10.012   .     S
Er10     V12    9.995   .     S
Er10     Ti46    10.012   .     S
V11     Ce17    10.011   .     S
V12     Ce18    10.011   .     S
Ti13     Ce18    9.979   1_554     S
Ti13     Ce23    9.989   1_545     S
Ti13     Ti22    9.991   1_544     S
Ti13     Er33    10.012   .     S
Ti13     Ti19    10.028   1_545     S
Ti13     Ti20    10.028   1_544     S
Ti14     Ce17    9.979   .     S
Ti14     Ce24    9.989   1_545     S
Ti14     Ti21    9.991   1_545     S
Ti14     Er34    10.012   .     S
Ti14     Ti20    10.028   1_545     S
Ti14     Ti19    10.028   1_545     S
Ti15     Ce17    9.979   .     S
Ti15     Ce23    9.989   1_545     S
Ti15     Ti19    9.991   1_545     S
Ti15     Er31    10.012   .     S
Ti15     Ti21    10.028   1_545     S
Ti15     Ti22    10.028   1_544     S
Ti16     Ce18    9.979   .     S
Ti16     Ce24    9.989   1_545     S
Ti16     Ti20    9.991   1_545     S
Ti16     Er32    10.012   .     S
Ti16     Ti22    10.028   1_545     S
Ti16     Ti21    10.028   1_545     S
Ce17     Ti21    9.989   1_545     S
Ce17     Ti19    9.989   1_545     S
Ce18     Ti13    9.979   1_556     S
Ce18     Ti22    9.989   1_545     S
Ce18     Ti20    9.989   1_545     S
Ti19     Ce23    9.979   .     S
Ti19     Ce17    9.989   1_565     S
Ti19     Ti15    9.991   1_565     S
Ti19     Er27    10.012   .     S
Ti19     Ti13    10.028   1_565     S
Ti19     Ti14    10.028   1_565     S
Ti20     Ce24    9.979   .     S
Ti20     Ce18    9.989   1_565     S
Ti20     Ti16    9.991   1_565     S
Ti20     Er28    10.012   .     S
Ti20     Ti14    10.028   1_565     S
Ti20     Ti13    10.028   1_566     S
Ti21     Ce17    9.989   1_565     S
Ti21     Ti14    9.991   1_565     S
Ti21     Ce24    9.979   .     S
Ti21     Er25    10.012   .     S
Ti21     Ti15    10.028   1_565     S
Ti21     Ti16    10.028   1_565     S
Ti22     Ce18    9.989   1_565     S
Ti22     Ti13    9.991   1_566     S
Ti22     Ce23    9.979   1_556     S
Ti22     Er26    10.012   .     S
Ti22     Ti16    10.028   1_565     S
Ti22     Ti15    10.028   1_566     S
Ce23     Ti13    9.989   1_565     S
Ce23     Ti22    9.979   1_554     S
Ce23     Ti15    9.989   1_565     S
Ce24     Ti14    9.989   1_565     S
Ce24     Ti16    9.989   1_565     S
Er25     Er27    9.991   1_455     S
Er25     V29    9.995   1_455     S
Er26     Er28    9.991   1_455     S
Er26     V30    9.995   1_455     S
Er27     Er25    9.991   1_655     S
Er27     V29    9.995   .     S
Er28     Er26    9.991   1_655     S
Er28     V30    9.995   .     S
V29     Er25    9.995   1_655     S
V29     Ce41    10.011   .     S
V30     Er26    9.995   1_655     S
V30     Ce42    10.011   .     S
Er31     Er33    9.991   1_455     S
Er31     V35    9.995   1_455     S
Er32     Er34    9.991   1_455     S
Er32     V36    9.995   .     S
Er33     Er31    9.991   1_655     S
Er33     V35    9.995   .     S
Er34     Er32    9.991   1_655     S
Er34     V36    9.995   1_655     S
V35     Er31    9.995   1_655     S
V35     Ce47    10.011   .     S
V36     Er34    9.995   1_455     S
V36     Ce48    10.011   .     S
Ti37     Ce42    9.979   1_454     S
Ti37     Ce47    9.989   1_455     S
Ti37     Ti46    9.991   1_454     S
Ti37     Ti43    10.028   .     S
Ti37     Ti44    10.028   1_554     S
Ti38     Ce41    9.979   1_455     S
Ti38     Ce48    9.989   .     S
Ti38     Ti45    9.991   1_455     S
Ti38     Ti44    10.028   .     S
Ti38     Ti43    10.028   .     S
Ti39     Ce41    9.979   .     S
Ti39     Ce47    9.989   .     S
Ti39     Ti43    9.991   1_655     S
Ti39     Ti45    10.028   .     S
Ti39     Ti46    10.028   1_554     S
Ti40     Ce42    9.979   .     S
Ti40     Ce48    9.989   1_655     S
Ti40     Ti44    9.991   1_655     S
Ti40     Ti46    10.028   .     S
Ti40     Ti45    10.028   .     S
Ce41     Ti38    9.979   1_655     S
Ce41     Ti45    9.989   .     S
Ce41     Ti43    9.989   1_655     S
Ce42     Ti37    9.979   1_656     S
Ce42     Ti46    9.989   .     S
Ce42     Ti44    9.989   1_655     S
Ti43     Ce47    9.979   1_455     S
Ti43     Ce41    9.989   1_455     S
Ti43     Ti39    9.991   1_455     S
Ti44     Ce48    9.979   .     S
Ti44     Ce42    9.989   1_455     S
Ti44     Ti40    9.991   1_455     S
Ti44     Ti37    10.028   1_556     S
Ti45     Ti38    9.991   1_655     S
Ti45     Ce48    9.979   1_655     S
Ti46     Ti37    9.991   1_656     S
Ti46     Ce47    9.979   1_556     S
Ti46     Ti39    10.028   1_556     S
Ce47     Ti37    9.989   1_655     S
Ce47     Ti43    9.979   1_655     S
Ce47     Ti46    9.979   1_554     S
Ce48     Ti45    9.979   1_455     S
Ce48     Ti40    9.989   1_455     S
