data_zll
_audit_creation_date              2019-12-31
_audit_creation_method            'Pymatgen'
_symmetry_space_group_name_H-M    'P1'
_symmetry_Int_Tables_number       1
loop_
_symmetry_equiv_pos_as_xyz
  x,y,z
_cell_length_a                    38.7266
_cell_length_b                    38.7266
_cell_length_c                    30.0129
_cell_angle_alpha                 90.0
_cell_angle_beta                 90.0
_cell_angle_gamma                 90.0
loop_
_atom_site_label
_atom_site_type_symbol
_atom_site_fract_x
_atom_site_fract_y
_atom_site_fract_z
V1     V     0.0   0.0   0.0
V2     V     0.0   0.0   0.3333
V3     V     0.0   0.0   0.6667
V4     V     0.0   0.5   0.0
V5     V     0.0   0.5   0.3333
V6     V     0.0   0.5   0.6667
V7     V     0.5   0.0   0.0
V8     V     0.5   0.0   0.3333
V9     V     0.5   0.0   0.6667
V10     V     0.5   0.5   0.0
V11     V     0.5   0.5   0.3333
V12     V     0.5   0.5   0.6667
Er13     Er     0.0   0.25   0.0833
Er14     Er     0.0   0.25   0.4167
Er15     Er     0.0   0.25   0.75
Er16     Er     0.0   0.75   0.0833
Er17     Er     0.0   0.75   0.4167
Er18     Er     0.0   0.75   0.75
Er19     Er     0.5   0.25   0.0833
Er20     Er     0.5   0.25   0.4167
Er21     Er     0.5   0.25   0.75
Er22     Er     0.5   0.75   0.0833
Er23     Er     0.5   0.75   0.4167
Er24     Er     0.5   0.75   0.75
Er25     Er     0.0   0.25   0.25
Er26     Er     0.0   0.25   0.5833
Er27     Er     0.0   0.25   0.9167
Er28     Er     0.0   0.75   0.25
Er29     Er     0.0   0.75   0.5833
Er30     Er     0.0   0.75   0.9167
Er31     Er     0.5   0.25   0.25
Er32     Er     0.5   0.25   0.5833
Er33     Er     0.5   0.25   0.9167
Er34     Er     0.5   0.75   0.25
Er35     Er     0.5   0.75   0.5833
Er36     Er     0.5   0.75   0.9167
Er37     Er     0.25   0.0   0.0833
Er38     Er     0.25   0.0   0.4167
Er39     Er     0.25   0.0   0.75
Er40     Er     0.25   0.5   0.0833
Er41     Er     0.25   0.5   0.4167
Er42     Er     0.25   0.5   0.75
Er43     Er     0.75   0.0   0.0833
Er44     Er     0.75   0.0   0.4167
Er45     Er     0.75   0.0   0.75
Er46     Er     0.75   0.5   0.0833
Er47     Er     0.75   0.5   0.4167
Er48     Er     0.75   0.5   0.75
Er49     Er     0.25   0.0   0.25
Er50     Er     0.25   0.0   0.5833
Er51     Er     0.25   0.0   0.9167
Er52     Er     0.25   0.5   0.25
Er53     Er     0.25   0.5   0.5833
Er54     Er     0.25   0.5   0.9167
Er55     Er     0.75   0.0   0.25
Er56     Er     0.75   0.0   0.5833
Er57     Er     0.75   0.0   0.9167
Er58     Er     0.75   0.5   0.25
Er59     Er     0.75   0.5   0.5833
Er60     Er     0.75   0.5   0.9167
V61     V     0.25   0.25   0.1667
V62     V     0.25   0.25   0.5
V63     V     0.25   0.25   0.8333
V64     V     0.25   0.75   0.1667
V65     V     0.25   0.75   0.5
V66     V     0.25   0.75   0.8333
V67     V     0.75   0.25   0.1667
V68     V     0.75   0.25   0.5
V69     V     0.75   0.25   0.8333
V70     V     0.75   0.75   0.1667
V71     V     0.75   0.75   0.5
V72     V     0.75   0.75   0.8333
loop_
_geom_bond_atom_site_label_1
_geom_bond_atom_site_label_2
_geom_bond_distance
_geom_bond_site_symmetry_2
_ccdc_geom_bond_type
V1     Er37    9.999   .     S
V1     Er51    9.999   1_554     S
V1     Er16    9.999   1_545     S
V1     Er30    9.999   1_544     S
V1     Er43    9.999   1_455     S
V1     Er57    9.999   1_454     S
V1     Er13    9.999   .     S
V1     Er27    9.999   1_554     S
V1     V2    10.004   .     S
V1     V3    10.004   1_554     S
V2     Er38    9.999   .     S
V2     Er49    9.999   .     S
V2     Er17    9.999   1_545     S
V2     Er28    9.999   1_545     S
V2     Er44    9.999   1_455     S
V2     Er55    9.999   1_455     S
V2     Er14    9.999   .     S
V2     Er25    9.999   .     S
V2     V3    10.004   .     S
V3     Er39    9.999   .     S
V3     Er50    9.999   .     S
V3     Er18    9.999   1_545     S
V3     Er29    9.999   1_545     S
V3     Er45    9.999   1_455     S
V3     Er56    9.999   1_455     S
V3     Er15    9.999   .     S
V3     Er26    9.999   .     S
V3     V1    10.004   1_556     S
V4     Er40    9.999   .     S
V4     Er54    9.999   1_554     S
V4     Er13    9.999   .     S
V4     Er27    9.999   1_554     S
V4     Er46    9.999   1_455     S
V4     Er60    9.999   1_454     S
V4     Er16    9.999   .     S
V4     Er30    9.999   1_554     S
V4     V5    10.004   .     S
V4     V6    10.004   1_554     S
V5     Er41    9.999   .     S
V5     Er52    9.999   .     S
V5     Er14    9.999   .     S
V5     Er25    9.999   .     S
V5     Er47    9.999   1_455     S
V5     Er58    9.999   1_455     S
V5     Er17    9.999   .     S
V5     Er28    9.999   .     S
V5     V6    10.004   .     S
V6     Er42    9.999   .     S
V6     Er53    9.999   .     S
V6     Er15    9.999   .     S
V6     Er26    9.999   .     S
V6     Er48    9.999   1_455     S
V6     Er59    9.999   1_455     S
V6     Er18    9.999   .     S
V6     Er29    9.999   .     S
V6     V4    10.004   1_556     S
V7     Er43    9.999   .     S
V7     Er57    9.999   1_554     S
V7     Er22    9.999   1_545     S
V7     Er36    9.999   1_544     S
V7     Er37    9.999   .     S
V7     Er51    9.999   1_554     S
V7     Er19    9.999   .     S
V7     Er33    9.999   1_554     S
V7     V8    10.004   .     S
V7     V9    10.004   1_554     S
V8     Er44    9.999   .     S
V8     Er55    9.999   .     S
V8     Er23    9.999   1_545     S
V8     Er34    9.999   1_545     S
V8     Er38    9.999   .     S
V8     Er49    9.999   .     S
V8     Er20    9.999   .     S
V8     Er31    9.999   .     S
V8     V9    10.004   .     S
V9     Er45    9.999   .     S
V9     Er56    9.999   .     S
V9     Er24    9.999   1_545     S
V9     Er35    9.999   1_545     S
V9     Er39    9.999   .     S
V9     Er50    9.999   .     S
V9     Er21    9.999   .     S
V9     Er32    9.999   .     S
V9     V7    10.004   1_556     S
V10     Er46    9.999   .     S
V10     Er60    9.999   1_554     S
V10     Er19    9.999   .     S
V10     Er33    9.999   1_554     S
V10     Er40    9.999   .     S
V10     Er54    9.999   1_554     S
V10     Er22    9.999   .     S
V10     Er36    9.999   1_554     S
V10     V11    10.004   .     S
V10     V12    10.004   1_554     S
V11     Er47    9.999   .     S
V11     Er58    9.999   .     S
V11     Er20    9.999   .     S
V11     Er31    9.999   .     S
V11     Er41    9.999   .     S
V11     Er52    9.999   .     S
V11     Er23    9.999   .     S
V11     Er34    9.999   .     S
V11     V12    10.004   .     S
V12     Er48    9.999   .     S
V12     Er59    9.999   .     S
V12     Er21    9.999   .     S
V12     Er32    9.999   .     S
V12     Er42    9.999   .     S
V12     Er53    9.999   .     S
V12     Er24    9.999   .     S
V12     Er35    9.999   .     S
V12     V10    10.004   1_556     S
Er13     V67    9.999   1_455     S
Er13     V61    9.999   .     S
Er14     V68    9.999   1_455     S
Er14     V62    9.999   .     S
Er15     V69    9.999   1_455     S
Er15     V63    9.999   .     S
Er16     V70    9.999   1_455     S
Er16     V64    9.999   .     S
Er16     V1    9.999   1_565     S
Er17     V71    9.999   1_455     S
Er17     V65    9.999   .     S
Er17     V2    9.999   1_565     S
Er18     V72    9.999   1_455     S
Er18     V66    9.999   .     S
Er18     V3    9.999   1_565     S
Er19     V61    9.999   .     S
Er19     V67    9.999   .     S
Er20     V62    9.999   .     S
Er20     V68    9.999   .     S
Er21     V63    9.999   .     S
Er21     V69    9.999   .     S
Er22     V64    9.999   .     S
Er22     V70    9.999   .     S
Er22     V7    9.999   1_565     S
Er23     V65    9.999   .     S
Er23     V71    9.999   .     S
Er23     V8    9.999   1_565     S
Er24     V66    9.999   .     S
Er24     V72    9.999   .     S
Er24     V9    9.999   1_565     S
Er25     V67    9.999   1_455     S
Er25     V61    9.999   .     S
Er26     V68    9.999   1_455     S
Er26     V62    9.999   .     S
Er27     V69    9.999   1_455     S
Er27     V63    9.999   .     S
Er27     V4    9.999   1_556     S
Er27     V1    9.999   1_556     S
Er28     V70    9.999   1_455     S
Er28     V64    9.999   .     S
Er28     V2    9.999   1_565     S
Er29     V71    9.999   1_455     S
Er29     V65    9.999   .     S
Er29     V3    9.999   1_565     S
Er30     V72    9.999   1_455     S
Er30     V66    9.999   .     S
Er30     V1    9.999   1_566     S
Er30     V4    9.999   1_556     S
Er31     V61    9.999   .     S
Er31     V67    9.999   .     S
Er32     V62    9.999   .     S
Er32     V68    9.999   .     S
Er33     V63    9.999   .     S
Er33     V69    9.999   .     S
Er33     V10    9.999   1_556     S
Er33     V7    9.999   1_556     S
Er34     V64    9.999   .     S
Er34     V70    9.999   .     S
Er34     V8    9.999   1_565     S
Er35     V65    9.999   .     S
Er35     V71    9.999   .     S
Er35     V9    9.999   1_565     S
Er36     V66    9.999   .     S
Er36     V72    9.999   .     S
Er36     V7    9.999   1_566     S
Er36     V10    9.999   1_556     S
Er37     V61    9.999   .     S
Er37     V64    9.999   1_545     S
Er38     V62    9.999   .     S
Er38     V65    9.999   1_545     S
Er39     V63    9.999   .     S
Er39     V66    9.999   1_545     S
Er40     V64    9.999   .     S
Er40     V61    9.999   .     S
Er41     V65    9.999   .     S
Er41     V62    9.999   .     S
Er42     V66    9.999   .     S
Er42     V63    9.999   .     S
Er43     V67    9.999   .     S
Er43     V70    9.999   1_545     S
Er43     V1    9.999   1_655     S
Er44     V68    9.999   .     S
Er44     V71    9.999   1_545     S
Er44     V2    9.999   1_655     S
Er45     V69    9.999   .     S
Er45     V72    9.999   1_545     S
Er45     V3    9.999   1_655     S
Er46     V70    9.999   .     S
Er46     V67    9.999   .     S
Er46     V4    9.999   1_655     S
Er47     V71    9.999   .     S
Er47     V68    9.999   .     S
Er47     V5    9.999   1_655     S
Er48     V72    9.999   .     S
Er48     V69    9.999   .     S
Er48     V6    9.999   1_655     S
Er49     V61    9.999   .     S
Er49     V64    9.999   1_545     S
Er50     V62    9.999   .     S
Er50     V65    9.999   1_545     S
Er51     V63    9.999   .     S
Er51     V66    9.999   1_545     S
Er51     V1    9.999   1_556     S
Er51     V7    9.999   1_556     S
Er52     V64    9.999   .     S
Er52     V61    9.999   .     S
Er53     V65    9.999   .     S
Er53     V62    9.999   .     S
Er54     V66    9.999   .     S
Er54     V63    9.999   .     S
Er54     V4    9.999   1_556     S
Er54     V10    9.999   1_556     S
Er55     V67    9.999   .     S
Er55     V70    9.999   1_545     S
Er55     V2    9.999   1_655     S
Er56     V68    9.999   .     S
Er56     V71    9.999   1_545     S
Er56     V3    9.999   1_655     S
Er57     V69    9.999   .     S
Er57     V72    9.999   1_545     S
Er57     V7    9.999   1_556     S
Er57     V1    9.999   1_656     S
Er58     V70    9.999   .     S
Er58     V67    9.999   .     S
Er58     V5    9.999   1_655     S
Er59     V71    9.999   .     S
Er59     V68    9.999   .     S
Er59     V6    9.999   1_655     S
Er60     V72    9.999   .     S
Er60     V69    9.999   .     S
Er60     V10    9.999   1_556     S
Er60     V4    9.999   1_656     S
V61     V63    10.004   1_554     S
V61     V62    10.004   .     S
V62     V63    10.004   .     S
V63     V61    10.004   1_556     S
V64     Er49    9.999   1_565     S
V64     Er37    9.999   1_565     S
V64     V66    10.004   1_554     S
V64     V65    10.004   .     S
V65     Er50    9.999   1_565     S
V65     Er38    9.999   1_565     S
V65     V66    10.004   .     S
V66     Er51    9.999   1_565     S
V66     Er39    9.999   1_565     S
V66     V64    10.004   1_556     S
V67     Er25    9.999   1_655     S
V67     Er13    9.999   1_655     S
V67     V69    10.004   1_554     S
V67     V68    10.004   .     S
V68     Er26    9.999   1_655     S
V68     Er14    9.999   1_655     S
V68     V69    10.004   .     S
V69     Er27    9.999   1_655     S
V69     Er15    9.999   1_655     S
V69     V67    10.004   1_556     S
V70     Er28    9.999   1_655     S
V70     Er16    9.999   1_655     S
V70     Er55    9.999   1_565     S
V70     Er43    9.999   1_565     S
V70     V72    10.004   1_554     S
V70     V71    10.004   .     S
V71     Er29    9.999   1_655     S
V71     Er17    9.999   1_655     S
V71     Er56    9.999   1_565     S
V71     Er44    9.999   1_565     S
V71     V72    10.004   .     S
V72     Er30    9.999   1_655     S
V72     Er18    9.999   1_655     S
V72     Er57    9.999   1_565     S
V72     Er45    9.999   1_565     S
V72     V70    10.004   1_556     S
