data_zni
_audit_creation_date              2019-12-31
_audit_creation_method            'Pymatgen'
_symmetry_space_group_name_H-M    'P1'
_symmetry_Int_Tables_number       1
loop_
_symmetry_equiv_pos_as_xyz
  x,y,z
_cell_length_a                    42.1148
_cell_length_b                    42.1148
_cell_length_c                    38.31
_cell_angle_alpha                 90.0
_cell_angle_beta                 90.0
_cell_angle_gamma                 90.0
loop_
_atom_site_label
_atom_site_type_symbol
_atom_site_fract_x
_atom_site_fract_y
_atom_site_fract_z
V1     V     0.431   0.5977   0.1992
V2     V     0.431   0.5977   0.6992
V3     V     0.3477   0.681   0.4258
V4     V     0.3477   0.681   0.9258
V5     V     0.3477   0.819   0.1758
V6     V     0.3477   0.819   0.6758
V7     V     0.431   0.9023   0.4492
V8     V     0.431   0.9023   0.9492
V9     V     0.569   0.5977   0.4492
V10     V     0.569   0.5977   0.9492
V11     V     0.6523   0.681   0.1758
V12     V     0.6523   0.681   0.6758
V13     V     0.6523   0.819   0.4258
V14     V     0.6523   0.819   0.9258
V15     V     0.569   0.9023   0.1992
V16     V     0.569   0.9023   0.6992
V17     V     0.069   0.5977   0.3008
V18     V     0.069   0.5977   0.8008
V19     V     0.1523   0.681   0.0742
V20     V     0.1523   0.681   0.5742
V21     V     0.069   0.9023   0.0508
V22     V     0.069   0.9023   0.5508
V23     V     0.1523   0.819   0.3242
V24     V     0.1523   0.819   0.8242
V25     V     0.8477   0.681   0.3242
V26     V     0.8477   0.681   0.8242
V27     V     0.931   0.5977   0.0508
V28     V     0.931   0.5977   0.5508
V29     V     0.8477   0.819   0.0742
V30     V     0.8477   0.819   0.5742
V31     V     0.931   0.9023   0.3008
V32     V     0.931   0.9023   0.8008
V33     V     0.931   0.4023   0.1992
V34     V     0.931   0.4023   0.6992
V35     V     0.8477   0.319   0.4258
V36     V     0.8477   0.319   0.9258
V37     V     0.931   0.0977   0.4492
V38     V     0.931   0.0977   0.9492
V39     V     0.8477   0.181   0.1758
V40     V     0.8477   0.181   0.6758
V41     V     0.1523   0.181   0.4258
V42     V     0.1523   0.181   0.9258
V43     V     0.069   0.0977   0.1992
V44     V     0.069   0.0977   0.6992
V45     V     0.069   0.4023   0.4492
V46     V     0.069   0.4023   0.9492
V47     V     0.1523   0.319   0.1758
V48     V     0.1523   0.319   0.6758
V49     V     0.431   0.4023   0.0508
V50     V     0.431   0.4023   0.5508
V51     V     0.3477   0.319   0.3242
V52     V     0.3477   0.319   0.8242
V53     V     0.6523   0.319   0.0742
V54     V     0.6523   0.319   0.5742
V55     V     0.569   0.4023   0.3008
V56     V     0.569   0.4023   0.8008
V57     V     0.6523   0.181   0.3242
V58     V     0.6523   0.181   0.8242
V59     V     0.569   0.0977   0.0508
V60     V     0.569   0.0977   0.5508
V61     V     0.3477   0.181   0.0742
V62     V     0.3477   0.181   0.5742
V63     V     0.431   0.0977   0.3008
V64     V     0.431   0.0977   0.8008
loop_
_geom_bond_atom_site_label_1
_geom_bond_atom_site_label_2
_geom_bond_distance
_geom_bond_site_symmetry_2
_ccdc_geom_bond_type
V1     V5    10.0   .     S
V1     V3    10.0   .     S
V1     V11    10.0   .     S
V1     V49    10.0   .     S
V2     V6    10.0   .     S
V2     V4    10.0   .     S
V2     V12    10.0   .     S
V2     V50    10.0   .     S
V3     V9    10.0   .     S
V3     V7    10.0   .     S
V3     V20    10.0   .     S
V4     V10    10.0   .     S
V4     V8    10.0   .     S
V4     V19    10.0   1_556     S
V5     V15    10.0   .     S
V5     V8    10.0   1_554     S
V5     V23    10.0   .     S
V6     V16    10.0   .     S
V6     V7    10.0   .     S
V6     V24    10.0   .     S
V7     V13    10.0   .     S
V7     V63    10.0   1_565     S
V8     V5    10.0   1_556     S
V8     V14    10.0   .     S
V8     V64    10.0   1_565     S
V9     V13    10.0   .     S
V9     V12    10.0   .     S
V9     V55    10.0   .     S
V10     V14    10.0   .     S
V10     V11    10.0   1_556     S
V10     V56    10.0   .     S
V11     V10    10.0   1_554     S
V11     V15    10.0   .     S
V11     V25    10.0   .     S
V12     V16    10.0   .     S
V12     V26    10.0   .     S
V13     V15    10.0   .     S
V13     V30    10.0   .     S
V14     V16    10.0   .     S
V14     V29    10.0   1_556     S
V15     V59    10.0   1_565     S
V16     V60    10.0   1_565     S
V17     V23    10.0   .     S
V17     V19    10.0   .     S
V17     V25    10.0   1_455     S
V17     V45    10.0   .     S
V18     V24    10.0   .     S
V18     V20    10.0   .     S
V18     V26    10.0   1_455     S
V18     V46    10.0   .     S
V19     V27    10.0   1_455     S
V19     V21    10.0   .     S
V19     V4    10.0   1_554     S
V20     V28    10.0   1_455     S
V20     V22    10.0   .     S
V21     V24    10.0   1_554     S
V21     V29    10.0   1_455     S
V21     V43    10.0   1_565     S
V22     V23    10.0   .     S
V22     V30    10.0   1_455     S
V22     V44    10.0   1_565     S
V23     V31    10.0   1_455     S
V24     V32    10.0   1_455     S
V24     V21    10.0   1_556     S
V25     V17    10.0   1_655     S
V25     V28    10.0   .     S
V25     V31    10.0   .     S
V26     V18    10.0   1_655     S
V26     V27    10.0   1_556     S
V26     V32    10.0   .     S
V27     V19    10.0   1_655     S
V27     V29    10.0   .     S
V27     V26    10.0   1_554     S
V27     V33    10.0   .     S
V28     V20    10.0   1_655     S
V28     V30    10.0   .     S
V28     V34    10.0   .     S
V29     V14    10.0   1_554     S
V29     V21    10.0   1_655     S
V29     V31    10.0   .     S
V30     V22    10.0   1_655     S
V30     V32    10.0   .     S
V31     V23    10.0   1_655     S
V31     V37    10.0   1_565     S
V32     V24    10.0   1_655     S
V32     V38    10.0   1_565     S
V33     V39    10.0   .     S
V33     V35    10.0   .     S
V33     V47    10.0   1_655     S
V34     V40    10.0   .     S
V34     V36    10.0   .     S
V34     V48    10.0   1_655     S
V35     V45    10.0   1_655     S
V35     V37    10.0   .     S
V35     V54    10.0   .     S
V36     V46    10.0   1_655     S
V36     V38    10.0   .     S
V36     V53    10.0   1_556     S
V37     V31    10.0   1_545     S
V37     V40    10.0   .     S
V37     V41    10.0   1_655     S
V38     V32    10.0   1_545     S
V38     V39    10.0   1_556     S
V38     V42    10.0   1_655     S
V39     V43    10.0   1_655     S
V39     V38    10.0   1_554     S
V39     V57    10.0   .     S
V40     V44    10.0   1_655     S
V40     V58    10.0   .     S
V41     V37    10.0   1_455     S
V41     V43    10.0   .     S
V41     V45    10.0   .     S
V41     V62    10.0   .     S
V42     V38    10.0   1_455     S
V42     V44    10.0   .     S
V42     V46    10.0   .     S
V42     V61    10.0   1_556     S
V43     V21    10.0   1_545     S
V43     V39    10.0   1_455     S
V43     V47    10.0   .     S
V44     V22    10.0   1_545     S
V44     V40    10.0   1_455     S
V44     V48    10.0   .     S
V45     V35    10.0   1_455     S
V45     V48    10.0   .     S
V46     V36    10.0   1_455     S
V46     V47    10.0   1_556     S
V47     V33    10.0   1_455     S
V47     V46    10.0   1_554     S
V47     V51    10.0   .     S
V48     V34    10.0   1_455     S
V48     V52    10.0   .     S
V49     V61    10.0   .     S
V49     V52    10.0   1_554     S
V49     V53    10.0   .     S
V50     V62    10.0   .     S
V50     V51    10.0   .     S
V50     V54    10.0   .     S
V51     V55    10.0   .     S
V51     V63    10.0   .     S
V52     V56    10.0   .     S
V52     V49    10.0   1_556     S
V52     V64    10.0   .     S
V53     V55    10.0   .     S
V53     V59    10.0   .     S
V53     V36    10.0   1_554     S
V54     V56    10.0   .     S
V54     V60    10.0   .     S
V55     V57    10.0   .     S
V56     V58    10.0   .     S
V57     V63    10.0   .     S
V57     V60    10.0   .     S
V58     V64    10.0   .     S
V58     V59    10.0   1_556     S
V59     V15    10.0   1_545     S
V59     V58    10.0   1_554     S
V59     V61    10.0   .     S
V60     V16    10.0   1_545     S
V60     V62    10.0   .     S
V61     V63    10.0   .     S
V61     V42    10.0   1_554     S
V62     V64    10.0   .     S
V63     V7    10.0   1_545     S
V64     V8    10.0   1_545     S
