data_znz
_audit_creation_date              2019-12-31
_audit_creation_method            'Pymatgen'
_symmetry_space_group_name_H-M    'P1'
_symmetry_Int_Tables_number       1
loop_
_symmetry_equiv_pos_as_xyz
  x,y,z
_cell_length_a                    39.9998
_cell_length_b                    39.9998
_cell_length_c                    32.6601
_cell_angle_alpha                 90.0
_cell_angle_beta                 90.0
_cell_angle_gamma                 120.0
loop_
_atom_site_label
_atom_site_type_symbol
_atom_site_fract_x
_atom_site_fract_y
_atom_site_fract_z
V1     V     0.0   0.0   0.5
V2     V     0.0   0.5   0.5
V3     V     0.5   0.0   0.5
V4     V     0.5   0.5   0.5
Er5     Er     0.0833   0.1667   0.75
Er6     Er     0.0833   0.6667   0.75
Er7     Er     0.5833   0.1667   0.75
Er8     Er     0.5833   0.6667   0.75
Er9     Er     0.0833   0.4167   0.75
Er10     Er     0.0833   0.9167   0.75
Er11     Er     0.5833   0.4167   0.75
Er12     Er     0.5833   0.9167   0.75
Er13     Er     0.3333   0.4167   0.75
Er14     Er     0.3333   0.9167   0.75
Er15     Er     0.8333   0.4167   0.75
Er16     Er     0.8333   0.9167   0.75
Er17     Er     0.1667   0.0833   0.25
Er18     Er     0.1667   0.5833   0.25
Er19     Er     0.6667   0.0833   0.25
Er20     Er     0.6667   0.5833   0.25
Er21     Er     0.4167   0.3333   0.25
Er22     Er     0.4167   0.8333   0.25
Er23     Er     0.9167   0.3333   0.25
Er24     Er     0.9167   0.8333   0.25
Er25     Er     0.4167   0.0833   0.25
Er26     Er     0.4167   0.5833   0.25
Er27     Er     0.9167   0.0833   0.25
Er28     Er     0.9167   0.5833   0.25
V29     V     0.0   0.0   0.0
V30     V     0.0   0.5   0.0
V31     V     0.5   0.0   0.0
V32     V     0.5   0.5   0.0
loop_
_geom_bond_atom_site_label_1
_geom_bond_atom_site_label_2
_geom_bond_distance
_geom_bond_site_symmetry_2
_ccdc_geom_bond_type
V1     Er10    10.0   1_545     S
V1     Er5    10.0   .     S
V1     Er16    10.0   1_445     S
V1     Er17    10.0   .     S
V1     Er27    10.0   1_455     S
V1     Er24    10.0   1_445     S
V2     Er9    10.0   .     S
V2     Er6    10.0   .     S
V2     Er15    10.0   1_455     S
V2     Er18    10.0   .     S
V2     Er28    10.0   1_455     S
V2     Er23    10.0   1_455     S
V3     Er12    10.0   1_545     S
V3     Er7    10.0   .     S
V3     Er14    10.0   1_545     S
V3     Er19    10.0   .     S
V3     Er25    10.0   .     S
V3     Er22    10.0   1_545     S
V4     Er11    10.0   .     S
V4     Er8    10.0   .     S
V4     Er13    10.0   .     S
V4     Er20    10.0   .     S
V4     Er26    10.0   .     S
V4     Er21    10.0   .     S
Er5     Er16    10.0   1_445     S
Er5     Er10    10.0   1_545     S
Er5     Er13    10.0   .     S
Er5     Er9    10.0   .     S
Er5     V29    10.0   1_556     S
Er6     Er15    10.0   1_455     S
Er6     Er9    10.0   .     S
Er6     Er14    10.0   .     S
Er6     Er10    10.0   .     S
Er6     V30    10.0   1_556     S
Er7     Er14    10.0   1_545     S
Er7     Er12    10.0   1_545     S
Er7     Er15    10.0   .     S
Er7     Er11    10.0   .     S
Er7     V31    10.0   1_556     S
Er8     Er13    10.0   .     S
Er8     Er11    10.0   .     S
Er8     Er16    10.0   .     S
Er8     Er12    10.0   .     S
Er8     V32    10.0   1_556     S
Er9     Er15    10.0   1_455     S
Er9     Er13    10.0   .     S
Er9     V30    10.0   1_556     S
Er10     V1    10.0   1_565     S
Er10     Er5    10.0   1_565     S
Er10     Er16    10.0   1_455     S
Er10     Er14    10.0   .     S
Er10     V29    10.0   1_566     S
Er11     Er13    10.0   .     S
Er11     Er15    10.0   .     S
Er11     V32    10.0   1_556     S
Er12     V3    10.0   1_565     S
Er12     Er7    10.0   1_565     S
Er12     Er14    10.0   .     S
Er12     Er16    10.0   .     S
Er12     V31    10.0   1_566     S
Er13     V32    10.0   1_556     S
Er14     V3    10.0   1_565     S
Er14     Er7    10.0   1_565     S
Er14     V31    10.0   1_566     S
Er15     V2    10.0   1_655     S
Er15     Er6    10.0   1_655     S
Er15     Er9    10.0   1_655     S
Er15     V30    10.0   1_656     S
Er16     V1    10.0   1_665     S
Er16     Er5    10.0   1_665     S
Er16     Er10    10.0   1_655     S
Er16     V29    10.0   1_666     S
Er17     Er24    10.0   1_445     S
Er17     Er21    10.0   .     S
Er17     Er25    10.0   .     S
Er17     Er27    10.0   1_455     S
Er17     V29    10.0   .     S
Er18     Er23    10.0   1_455     S
Er18     Er22    10.0   .     S
Er18     Er26    10.0   .     S
Er18     Er28    10.0   1_455     S
Er18     V30    10.0   .     S
Er19     Er22    10.0   1_545     S
Er19     Er23    10.0   .     S
Er19     Er27    10.0   .     S
Er19     Er25    10.0   .     S
Er19     V31    10.0   .     S
Er20     Er21    10.0   .     S
Er20     Er24    10.0   .     S
Er20     Er28    10.0   .     S
Er20     Er26    10.0   .     S
Er20     V32    10.0   .     S
Er21     Er25    10.0   .     S
Er21     Er26    10.0   .     S
Er21     V32    10.0   .     S
Er22     V3    10.0   1_565     S
Er22     Er19    10.0   1_565     S
Er22     Er26    10.0   .     S
Er22     Er25    10.0   1_565     S
Er22     V31    10.0   1_565     S
Er23     V2    10.0   1_655     S
Er23     Er18    10.0   1_655     S
Er23     Er27    10.0   .     S
Er23     Er28    10.0   .     S
Er23     V30    10.0   1_655     S
Er24     V1    10.0   1_665     S
Er24     Er17    10.0   1_665     S
Er24     Er28    10.0   .     S
Er24     Er27    10.0   1_565     S
Er24     V29    10.0   1_665     S
Er25     Er22    10.0   1_545     S
Er25     V31    10.0   .     S
Er26     V32    10.0   .     S
Er27     V1    10.0   1_655     S
Er27     Er17    10.0   1_655     S
Er27     Er24    10.0   1_545     S
Er27     V29    10.0   1_655     S
Er28     V2    10.0   1_655     S
Er28     Er18    10.0   1_655     S
Er28     V30    10.0   1_655     S
V29     Er10    10.0   1_544     S
V29     Er5    10.0   1_554     S
V29     Er16    10.0   1_444     S
V29     Er27    10.0   1_455     S
V29     Er24    10.0   1_445     S
V30     Er9    10.0   1_554     S
V30     Er6    10.0   1_554     S
V30     Er15    10.0   1_454     S
V30     Er28    10.0   1_455     S
V30     Er23    10.0   1_455     S
V31     Er12    10.0   1_544     S
V31     Er7    10.0   1_554     S
V31     Er14    10.0   1_544     S
V31     Er22    10.0   1_545     S
V32     Er11    10.0   1_554     S
V32     Er8    10.0   1_554     S
V32     Er13    10.0   1_554     S
