data_zra
_audit_creation_date              2019-12-31
_audit_creation_method            'Pymatgen'
_symmetry_space_group_name_H-M    'P1'
_symmetry_Int_Tables_number       1
loop_
_symmetry_equiv_pos_as_xyz
  x,y,z
_cell_length_a                    34.5966
_cell_length_b                    34.5966
_cell_length_c                    35.4242
_cell_angle_alpha                 90.0
_cell_angle_beta                 90.0
_cell_angle_gamma                 120.0
loop_
_atom_site_label
_atom_site_type_symbol
_atom_site_fract_x
_atom_site_fract_y
_atom_site_fract_z
Er1     Er     0.3333   0.1667   0.25
Er2     Er     0.3333   0.1667   0.75
Er3     Er     0.3333   0.6667   0.25
Er4     Er     0.3333   0.6667   0.75
Er5     Er     0.8333   0.1667   0.25
Er6     Er     0.8333   0.1667   0.75
Er7     Er     0.8333   0.6667   0.25
Er8     Er     0.8333   0.6667   0.75
Er9     Er     0.1667   0.3333   0.25
Er10     Er     0.1667   0.3333   0.75
Er11     Er     0.1667   0.8333   0.25
Er12     Er     0.1667   0.8333   0.75
Er13     Er     0.6667   0.3333   0.25
Er14     Er     0.6667   0.3333   0.75
Er15     Er     0.6667   0.8333   0.25
Er16     Er     0.6667   0.8333   0.75
Ti17     Ti     0.0   0.0   0.1424
Ti18     Ti     0.0   0.0   0.6424
Ti19     Ti     0.0   0.5   0.1424
Ti20     Ti     0.0   0.5   0.6424
Ti21     Ti     0.5   0.0   0.1424
Ti22     Ti     0.5   0.0   0.6424
Ti23     Ti     0.5   0.5   0.1424
Ti24     Ti     0.5   0.5   0.6424
Ti25     Ti     0.0   0.0   0.3576
Ti26     Ti     0.0   0.0   0.8576
Ti27     Ti     0.0   0.5   0.3576
Ti28     Ti     0.0   0.5   0.8576
Ti29     Ti     0.5   0.0   0.3576
Ti30     Ti     0.5   0.0   0.8576
Ti31     Ti     0.5   0.5   0.3576
Ti32     Ti     0.5   0.5   0.8576
V33     V     0.0   0.25   0.0
V34     V     0.0   0.25   0.5
V35     V     0.0   0.75   0.0
V36     V     0.0   0.75   0.5
V37     V     0.5   0.25   0.0
V38     V     0.5   0.25   0.5
V39     V     0.5   0.75   0.0
V40     V     0.5   0.75   0.5
V41     V     0.25   0.25   0.0
V42     V     0.25   0.25   0.5
V43     V     0.25   0.75   0.0
V44     V     0.25   0.75   0.5
V45     V     0.75   0.25   0.0
V46     V     0.75   0.25   0.5
V47     V     0.75   0.75   0.0
V48     V     0.75   0.75   0.5
V49     V     0.25   0.0   0.0
V50     V     0.25   0.0   0.5
V51     V     0.25   0.5   0.0
V52     V     0.25   0.5   0.5
V53     V     0.75   0.0   0.0
V54     V     0.75   0.0   0.5
V55     V     0.75   0.5   0.0
V56     V     0.75   0.5   0.5
loop_
_geom_bond_atom_site_label_1
_geom_bond_atom_site_label_2
_geom_bond_distance
_geom_bond_site_symmetry_2
_ccdc_geom_bond_type
Er1     V38    10.167   .     S
Er1     V42    10.167   .     S
Er1     V50    10.167   .     S
Er1     V41    10.167   .     S
Er1     V37    10.167   .     S
Er1     V49    10.167   .     S
Er1     Ti21    10.69   .     S
Er1     Ti29    10.69   .     S
Er1     Ti23    10.69   .     S
Er1     Ti31    10.69   .     S
Er1     Ti17    10.69   .     S
Er1     Ti25    10.69   .     S
Er1     Er13    9.987   .     S
Er1     Er9    9.987   .     S
Er1     Er11    9.987   1_545     S
Er2     V37    10.167   1_556     S
Er2     V41    10.167   1_556     S
Er2     V49    10.167   1_556     S
Er2     V42    10.167   .     S
Er2     V38    10.167   .     S
Er2     V50    10.167   .     S
Er2     Ti22    10.69   .     S
Er2     Ti30    10.69   .     S
Er2     Ti24    10.69   .     S
Er2     Ti32    10.69   .     S
Er2     Ti18    10.69   .     S
Er2     Ti26    10.69   .     S
Er2     Er14    9.987   .     S
Er2     Er10    9.987   .     S
Er2     Er12    9.987   1_545     S
Er3     V40    10.167   .     S
Er3     V44    10.167   .     S
Er3     V52    10.167   .     S
Er3     V43    10.167   .     S
Er3     V39    10.167   .     S
Er3     V51    10.167   .     S
Er3     Ti23    10.69   .     S
Er3     Ti31    10.69   .     S
Er3     Ti21    10.69   1_565     S
Er3     Ti29    10.69   1_565     S
Er3     Ti19    10.69   .     S
Er3     Ti27    10.69   .     S
Er3     Er15    9.987   .     S
Er3     Er11    9.987   .     S
Er3     Er9    9.987   .     S
Er4     V39    10.167   1_556     S
Er4     V43    10.167   1_556     S
Er4     V51    10.167   1_556     S
Er4     V44    10.167   .     S
Er4     V40    10.167   .     S
Er4     V52    10.167   .     S
Er4     Ti24    10.69   .     S
Er4     Ti32    10.69   .     S
Er4     Ti22    10.69   1_565     S
Er4     Ti30    10.69   1_565     S
Er4     Ti20    10.69   .     S
Er4     Ti28    10.69   .     S
Er4     Er16    9.987   .     S
Er4     Er12    9.987   .     S
Er4     Er10    9.987   .     S
Er5     V34    10.167   1_655     S
Er5     V46    10.167   .     S
Er5     V54    10.167   .     S
Er5     V45    10.167   .     S
Er5     V33    10.167   1_655     S
Er5     V53    10.167   .     S
Er5     Ti17    10.69   1_655     S
Er5     Ti25    10.69   1_655     S
Er5     Ti19    10.69   1_655     S
Er5     Ti27    10.69   1_655     S
Er5     Ti21    10.69   .     S
Er5     Ti29    10.69   .     S
Er5     Er9    9.987   1_655     S
Er5     Er13    9.987   .     S
Er5     Er15    9.987   1_545     S
Er6     V33    10.167   1_656     S
Er6     V45    10.167   1_556     S
Er6     V53    10.167   1_556     S
Er6     V46    10.167   .     S
Er6     V34    10.167   1_655     S
Er6     V54    10.167   .     S
Er6     Ti18    10.69   1_655     S
Er6     Ti26    10.69   1_655     S
Er6     Ti20    10.69   1_655     S
Er6     Ti28    10.69   1_655     S
Er6     Ti22    10.69   .     S
Er6     Ti30    10.69   .     S
Er6     Er10    9.987   1_655     S
Er6     Er14    9.987   .     S
Er6     Er16    9.987   1_545     S
Er7     V36    10.167   1_655     S
Er7     V48    10.167   .     S
Er7     V56    10.167   .     S
Er7     V47    10.167   .     S
Er7     V35    10.167   1_655     S
Er7     V55    10.167   .     S
Er7     Ti19    10.69   1_655     S
Er7     Ti27    10.69   1_655     S
Er7     Ti17    10.69   1_665     S
Er7     Ti25    10.69   1_665     S
Er7     Ti23    10.69   .     S
Er7     Ti31    10.69   .     S
Er7     Er11    9.987   1_655     S
Er7     Er15    9.987   .     S
Er7     Er13    9.987   .     S
Er8     V35    10.167   1_656     S
Er8     V47    10.167   1_556     S
Er8     V55    10.167   1_556     S
Er8     V48    10.167   .     S
Er8     V36    10.167   1_655     S
Er8     V56    10.167   .     S
Er8     Ti20    10.69   1_655     S
Er8     Ti28    10.69   1_655     S
Er8     Ti18    10.69   1_665     S
Er8     Ti26    10.69   1_665     S
Er8     Ti24    10.69   .     S
Er8     Ti32    10.69   .     S
Er8     Er12    9.987   1_655     S
Er8     Er16    9.987   .     S
Er8     Er14    9.987   .     S
Er9     V52    10.167   .     S
Er9     V42    10.167   .     S
Er9     V34    10.167   .     S
Er9     V51    10.167   .     S
Er9     V41    10.167   .     S
Er9     V33    10.167   .     S
Er9     Ti23    10.69   .     S
Er9     Ti31    10.69   .     S
Er9     Ti17    10.69   .     S
Er9     Ti25    10.69   .     S
Er9     Ti19    10.69   .     S
Er9     Ti27    10.69   .     S
Er9     Er5    9.987   1_455     S
Er10     V51    10.167   1_556     S
Er10     V41    10.167   1_556     S
Er10     V33    10.167   1_556     S
Er10     V52    10.167   .     S
Er10     V42    10.167   .     S
Er10     V34    10.167   .     S
Er10     Ti24    10.69   .     S
Er10     Ti32    10.69   .     S
Er10     Ti18    10.69   .     S
Er10     Ti26    10.69   .     S
Er10     Ti20    10.69   .     S
Er10     Ti28    10.69   .     S
Er10     Er6    9.987   1_455     S
Er11     V50    10.167   1_565     S
Er11     V44    10.167   .     S
Er11     V36    10.167   .     S
Er11     V49    10.167   1_565     S
Er11     V43    10.167   .     S
Er11     V35    10.167   .     S
Er11     Ti21    10.69   1_565     S
Er11     Ti29    10.69   1_565     S
Er11     Ti19    10.69   .     S
Er11     Ti27    10.69   .     S
Er11     Ti17    10.69   1_565     S
Er11     Ti25    10.69   1_565     S
Er11     Er7    9.987   1_455     S
Er11     Er1    9.987   1_565     S
Er12     V49    10.167   1_566     S
Er12     V43    10.167   1_556     S
Er12     V35    10.167   1_556     S
Er12     V50    10.167   1_565     S
Er12     V44    10.167   .     S
Er12     V36    10.167   .     S
Er12     Ti22    10.69   1_565     S
Er12     Ti30    10.69   1_565     S
Er12     Ti20    10.69   .     S
Er12     Ti28    10.69   .     S
Er12     Ti18    10.69   1_565     S
Er12     Ti26    10.69   1_565     S
Er12     Er8    9.987   1_455     S
Er12     Er2    9.987   1_565     S
Er13     V56    10.167   .     S
Er13     V46    10.167   .     S
Er13     V38    10.167   .     S
Er13     V55    10.167   .     S
Er13     V45    10.167   .     S
Er13     V37    10.167   .     S
Er13     Ti19    10.69   1_655     S
Er13     Ti27    10.69   1_655     S
Er13     Ti21    10.69   .     S
Er13     Ti29    10.69   .     S
Er13     Ti23    10.69   .     S
Er13     Ti31    10.69   .     S
Er14     V55    10.167   1_556     S
Er14     V45    10.167   1_556     S
Er14     V37    10.167   1_556     S
Er14     V56    10.167   .     S
Er14     V46    10.167   .     S
Er14     V38    10.167   .     S
Er14     Ti20    10.69   1_655     S
Er14     Ti28    10.69   1_655     S
Er14     Ti22    10.69   .     S
Er14     Ti30    10.69   .     S
Er14     Ti24    10.69   .     S
Er14     Ti32    10.69   .     S
Er15     V54    10.167   1_565     S
Er15     V48    10.167   .     S
Er15     V40    10.167   .     S
Er15     V53    10.167   1_565     S
Er15     V47    10.167   .     S
Er15     V39    10.167   .     S
Er15     Ti17    10.69   1_665     S
Er15     Ti25    10.69   1_665     S
Er15     Ti23    10.69   .     S
Er15     Ti31    10.69   .     S
Er15     Ti21    10.69   1_565     S
Er15     Ti29    10.69   1_565     S
Er15     Er5    9.987   1_565     S
Er16     V53    10.167   1_566     S
Er16     V47    10.167   1_556     S
Er16     V39    10.167   1_556     S
Er16     V54    10.167   1_565     S
Er16     V48    10.167   .     S
Er16     V40    10.167   .     S
Er16     Ti18    10.69   1_665     S
Er16     Ti26    10.69   1_665     S
Er16     Ti24    10.69   .     S
Er16     Ti32    10.69   .     S
Er16     Ti22    10.69   1_565     S
Er16     Ti30    10.69   1_565     S
Er16     Er6    9.987   1_565     S
Ti17     Er5    10.69   1_455     S
Ti17     Er15    10.69   1_445     S
Ti17     Er7    10.69   1_445     S
Ti17     Er11    10.69   1_545     S
Ti17     Ti25    7.624   .     S
Ti17     Ti26    10.088   1_554     S
Ti17     V47    10.012   1_445     S
Ti17     V35    10.012   1_545     S
Ti17     V33    10.012   .     S
Ti17     V53    10.012   1_455     S
Ti17     V49    10.012   .     S
Ti17     V41    10.012   .     S
Ti18     Er6    10.69   1_455     S
Ti18     Er16    10.69   1_445     S
Ti18     Er8    10.69   1_445     S
Ti18     Er12    10.69   1_545     S
Ti18     Ti26    7.624   .     S
Ti18     Ti25    10.088   .     S
Ti18     V48    10.012   1_445     S
Ti18     V36    10.012   1_545     S
Ti18     V34    10.012   .     S
Ti18     V54    10.012   1_455     S
Ti18     V50    10.012   .     S
Ti18     V42    10.012   .     S
Ti19     Er7    10.69   1_455     S
Ti19     Er13    10.69   1_455     S
Ti19     Er5    10.69   1_455     S
Ti19     Ti27    7.624   .     S
Ti19     Ti28    10.088   1_554     S
Ti19     V45    10.012   1_455     S
Ti19     V33    10.012   .     S
Ti19     V35    10.012   .     S
Ti19     V55    10.012   1_455     S
Ti19     V51    10.012   .     S
Ti19     V43    10.012   .     S
Ti20     Er8    10.69   1_455     S
Ti20     Er14    10.69   1_455     S
Ti20     Er6    10.69   1_455     S
Ti20     Ti28    7.624   .     S
Ti20     Ti27    10.088   .     S
Ti20     V46    10.012   1_455     S
Ti20     V34    10.012   .     S
Ti20     V36    10.012   .     S
Ti20     V56    10.012   1_455     S
Ti20     V52    10.012   .     S
Ti20     V44    10.012   .     S
Ti21     Er11    10.69   1_545     S
Ti21     Er3    10.69   1_545     S
Ti21     Er15    10.69   1_545     S
Ti21     Ti29    7.624   .     S
Ti21     Ti30    10.088   1_554     S
Ti21     V43    10.012   1_545     S
Ti21     V39    10.012   1_545     S
Ti21     V37    10.012   .     S
Ti21     V49    10.012   .     S
Ti21     V53    10.012   .     S
Ti21     V45    10.012   .     S
Ti22     Er12    10.69   1_545     S
Ti22     Er4    10.69   1_545     S
Ti22     Er16    10.69   1_545     S
Ti22     Ti30    7.624   .     S
Ti22     Ti29    10.088   .     S
Ti22     V44    10.012   1_545     S
Ti22     V40    10.012   1_545     S
Ti22     V38    10.012   .     S
Ti22     V50    10.012   .     S
Ti22     V54    10.012   .     S
Ti22     V46    10.012   .     S
Ti23     Ti31    7.624   .     S
Ti23     Ti32    10.088   1_554     S
Ti23     V41    10.012   .     S
Ti23     V37    10.012   .     S
Ti23     V39    10.012   .     S
Ti23     V51    10.012   .     S
Ti23     V55    10.012   .     S
Ti23     V47    10.012   .     S
Ti24     Ti32    7.624   .     S
Ti24     Ti31    10.088   .     S
Ti24     V42    10.012   .     S
Ti24     V38    10.012   .     S
Ti24     V40    10.012   .     S
Ti24     V52    10.012   .     S
Ti24     V56    10.012   .     S
Ti24     V48    10.012   .     S
Ti25     Er5    10.69   1_455     S
Ti25     Er15    10.69   1_445     S
Ti25     Er7    10.69   1_445     S
Ti25     Er11    10.69   1_545     S
Ti25     V48    10.012   1_445     S
Ti25     V36    10.012   1_545     S
Ti25     V54    10.012   1_455     S
Ti25     V50    10.012   .     S
Ti25     V42    10.012   .     S
Ti25     V34    10.012   .     S
Ti26     Er6    10.69   1_455     S
Ti26     Er16    10.69   1_445     S
Ti26     Er8    10.69   1_445     S
Ti26     Er12    10.69   1_545     S
Ti26     Ti17    10.088   1_556     S
Ti26     V47    10.012   1_446     S
Ti26     V35    10.012   1_546     S
Ti26     V53    10.012   1_456     S
Ti26     V49    10.012   1_556     S
Ti26     V41    10.012   1_556     S
Ti26     V33    10.012   1_556     S
Ti27     Er7    10.69   1_455     S
Ti27     Er13    10.69   1_455     S
Ti27     Er5    10.69   1_455     S
Ti27     V46    10.012   1_455     S
Ti27     V34    10.012   .     S
Ti27     V56    10.012   1_455     S
Ti27     V52    10.012   .     S
Ti27     V44    10.012   .     S
Ti27     V36    10.012   .     S
Ti28     Er8    10.69   1_455     S
Ti28     Er14    10.69   1_455     S
Ti28     Er6    10.69   1_455     S
Ti28     Ti19    10.088   1_556     S
Ti28     V45    10.012   1_456     S
Ti28     V33    10.012   1_556     S
Ti28     V55    10.012   1_456     S
Ti28     V51    10.012   1_556     S
Ti28     V43    10.012   1_556     S
Ti28     V35    10.012   1_556     S
Ti29     Er11    10.69   1_545     S
Ti29     Er3    10.69   1_545     S
Ti29     Er15    10.69   1_545     S
Ti29     V44    10.012   1_545     S
Ti29     V40    10.012   1_545     S
Ti29     V50    10.012   .     S
Ti29     V54    10.012   .     S
Ti29     V46    10.012   .     S
Ti29     V38    10.012   .     S
Ti30     Er12    10.69   1_545     S
Ti30     Er4    10.69   1_545     S
Ti30     Er16    10.69   1_545     S
Ti30     Ti21    10.088   1_556     S
Ti30     V43    10.012   1_546     S
Ti30     V39    10.012   1_546     S
Ti30     V49    10.012   1_556     S
Ti30     V53    10.012   1_556     S
Ti30     V45    10.012   1_556     S
Ti30     V37    10.012   1_556     S
Ti31     V42    10.012   .     S
Ti31     V38    10.012   .     S
Ti31     V52    10.012   .     S
Ti31     V56    10.012   .     S
Ti31     V48    10.012   .     S
Ti31     V40    10.012   .     S
Ti32     Ti23    10.088   1_556     S
Ti32     V41    10.012   1_556     S
Ti32     V37    10.012   1_556     S
Ti32     V51    10.012   1_556     S
Ti32     V55    10.012   1_556     S
Ti32     V47    10.012   1_556     S
Ti32     V39    10.012   1_556     S
V33     V41    8.649   .     S
V33     V51    8.649   .     S
V33     V45    8.649   1_455     S
V33     V53    8.649   1_455     S
V33     Er6    10.167   1_454     S
V33     Er10    10.167   1_554     S
V33     Er5    10.167   1_455     S
V33     Ti28    10.012   1_554     S
V33     Ti26    10.012   1_554     S
V34     V42    8.649   .     S
V34     V52    8.649   .     S
V34     V46    8.649   1_455     S
V34     V54    8.649   1_455     S
V34     Er5    10.167   1_455     S
V34     Er6    10.167   1_455     S
V35     V43    8.649   .     S
V35     V49    8.649   1_565     S
V35     V47    8.649   1_455     S
V35     V55    8.649   1_455     S
V35     Er8    10.167   1_454     S
V35     Er12    10.167   1_554     S
V35     Er7    10.167   1_455     S
V35     Ti17    10.012   1_565     S
V35     Ti26    10.012   1_564     S
V35     Ti28    10.012   1_554     S
V36     V44    8.649   .     S
V36     V50    8.649   1_565     S
V36     V48    8.649   1_455     S
V36     V56    8.649   1_455     S
V36     Er7    10.167   1_455     S
V36     Er8    10.167   1_455     S
V36     Ti18    10.012   1_565     S
V36     Ti25    10.012   1_565     S
V37     V45    8.649   .     S
V37     V55    8.649   .     S
V37     V41    8.649   .     S
V37     V49    8.649   .     S
V37     Er2    10.167   1_554     S
V37     Er14    10.167   1_554     S
V37     Ti32    10.012   1_554     S
V37     Ti30    10.012   1_554     S
V38     V46    8.649   .     S
V38     V56    8.649   .     S
V38     V42    8.649   .     S
V38     V50    8.649   .     S
V39     V47    8.649   .     S
V39     V53    8.649   1_565     S
V39     V43    8.649   .     S
V39     V51    8.649   .     S
V39     Er4    10.167   1_554     S
V39     Er16    10.167   1_554     S
V39     Ti21    10.012   1_565     S
V39     Ti30    10.012   1_564     S
V39     Ti32    10.012   1_554     S
V40     V48    8.649   .     S
V40     V54    8.649   1_565     S
V40     V44    8.649   .     S
V40     V52    8.649   .     S
V40     Ti22    10.012   1_565     S
V40     Ti29    10.012   1_565     S
V41     V51    8.649   .     S
V41     V49    8.649   .     S
V41     Er2    10.167   1_554     S
V41     Er10    10.167   1_554     S
V41     Ti32    10.012   1_554     S
V41     Ti26    10.012   1_554     S
V42     V52    8.649   .     S
V42     V50    8.649   .     S
V43     V49    8.649   1_565     S
V43     V51    8.649   .     S
V43     Er4    10.167   1_554     S
V43     Er12    10.167   1_554     S
V43     Ti21    10.012   1_565     S
V43     Ti30    10.012   1_564     S
V43     Ti28    10.012   1_554     S
V44     V50    8.649   1_565     S
V44     V52    8.649   .     S
V44     Ti22    10.012   1_565     S
V44     Ti29    10.012   1_565     S
V45     V33    8.649   1_655     S
V45     V55    8.649   .     S
V45     V53    8.649   .     S
V45     Er6    10.167   1_554     S
V45     Er14    10.167   1_554     S
V45     Ti19    10.012   1_655     S
V45     Ti28    10.012   1_654     S
V45     Ti30    10.012   1_554     S
V46     V34    8.649   1_655     S
V46     V56    8.649   .     S
V46     V54    8.649   .     S
V46     Ti20    10.012   1_655     S
V46     Ti27    10.012   1_655     S
V47     V35    8.649   1_655     S
V47     V53    8.649   1_565     S
V47     V55    8.649   .     S
V47     Er8    10.167   1_554     S
V47     Er16    10.167   1_554     S
V47     Ti17    10.012   1_665     S
V47     Ti26    10.012   1_664     S
V47     Ti32    10.012   1_554     S
V48     V36    8.649   1_655     S
V48     V54    8.649   1_565     S
V48     V56    8.649   .     S
V48     Ti18    10.012   1_665     S
V48     Ti25    10.012   1_665     S
V49     V35    8.649   1_545     S
V49     V43    8.649   1_545     S
V49     Er2    10.167   1_554     S
V49     Er12    10.167   1_544     S
V49     Er11    10.167   1_545     S
V49     Ti30    10.012   1_554     S
V49     Ti26    10.012   1_554     S
V50     V36    8.649   1_545     S
V50     V44    8.649   1_545     S
V50     Er11    10.167   1_545     S
V50     Er12    10.167   1_545     S
V51     Er4    10.167   1_554     S
V51     Er10    10.167   1_554     S
V51     Ti32    10.012   1_554     S
V51     Ti28    10.012   1_554     S
V53     V39    8.649   1_545     S
V53     V47    8.649   1_545     S
V53     V33    8.649   1_655     S
V53     Er6    10.167   1_554     S
V53     Er16    10.167   1_544     S
V53     Er15    10.167   1_545     S
V53     Ti17    10.012   1_655     S
V53     Ti26    10.012   1_654     S
V53     Ti30    10.012   1_554     S
V54     V40    8.649   1_545     S
V54     V48    8.649   1_545     S
V54     V34    8.649   1_655     S
V54     Er15    10.167   1_545     S
V54     Er16    10.167   1_545     S
V54     Ti18    10.012   1_655     S
V54     Ti25    10.012   1_655     S
V55     V35    8.649   1_655     S
V55     Er8    10.167   1_554     S
V55     Er14    10.167   1_554     S
V55     Ti19    10.012   1_655     S
V55     Ti28    10.012   1_654     S
V55     Ti32    10.012   1_554     S
V56     V36    8.649   1_655     S
V56     Ti20    10.012   1_655     S
V56     Ti27    10.012   1_655     S
