data_zyl
_audit_creation_date              2019-12-31
_audit_creation_method            'Pymatgen'
_symmetry_space_group_name_H-M    'P1'
_symmetry_Int_Tables_number       1
loop_
_symmetry_equiv_pos_as_xyz
  x,y,z
_cell_length_a                    36.3394
_cell_length_b                    41.1578
_cell_length_c                    32.4285
_cell_angle_alpha                 90.0
_cell_angle_beta                 90.0
_cell_angle_gamma                 90.0
loop_
_atom_site_label
_atom_site_type_symbol
_atom_site_fract_x
_atom_site_fract_y
_atom_site_fract_z
V1     V     0.0   0.9057   0.5
V2     V     0.5   0.9057   0.5
Ti3     Ti     0.0   0.6878   0.6365
Ti4     Ti     0.5   0.6878   0.6365
Er5     Er     0.0   0.904   0.1916
Er6     Er     0.5   0.904   0.1916
Ti7     Ti     0.25   0.8122   0.1365
Ti8     Ti     0.75   0.8122   0.1365
V9     V     0.25   0.5943   0.0
V10     V     0.75   0.5943   0.0
Er11     Er     0.25   0.596   0.6916
Er12     Er     0.75   0.596   0.6916
Ti13     Ti     0.25   0.1878   0.6365
Ti14     Ti     0.75   0.1878   0.6365
V15     V     0.25   0.4057   0.5
V16     V     0.75   0.4057   0.5
Er17     Er     0.25   0.404   0.1916
Er18     Er     0.75   0.404   0.1916
Ti19     Ti     0.0   0.3122   0.1365
Ti20     Ti     0.5   0.3122   0.1365
V21     V     0.0   0.0943   0.0
V22     V     0.5   0.0943   0.0
Er23     Er     0.0   0.096   0.6916
Er24     Er     0.5   0.096   0.6916
loop_
_geom_bond_atom_site_label_1
_geom_bond_atom_site_label_2
_geom_bond_distance
_geom_bond_site_symmetry_2
_ccdc_geom_bond_type
V1     Ti3    10.0   .     S
V1     Er5    10.0   .     S
V1     Er23    10.0   1_565     S
V2     Ti4    10.0   .     S
V2     Er6    10.0   .     S
V2     Er24    10.0   1_565     S
Ti3     Er12    10.0   1_455     S
Ti3     Er11    10.0   .     S
Ti4     Er11    10.0   .     S
Ti4     Er12    10.0   .     S
Er5     Ti8    10.0   1_455     S
Er5     Ti7    10.0   .     S
Er5     V21    10.0   1_565     S
Er6     Ti7    10.0   .     S
Er6     Ti8    10.0   .     S
Er6     V22    10.0   1_565     S
Ti7     V9    10.0   .     S
Ti8     V10    10.0   .     S
Ti8     Er5    10.0   1_655     S
V9     Er11    10.0   1_554     S
V9     Er17    10.0   .     S
V10     Er12    10.0   1_554     S
V10     Er18    10.0   .     S
Er11     V9    10.0   1_556     S
Er11     V15    10.0   .     S
Er12     V10    10.0   1_556     S
Er12     Ti3    10.0   1_655     S
Er12     V16    10.0   .     S
Ti13     V15    10.0   .     S
Ti13     Er23    10.0   .     S
Ti13     Er24    10.0   .     S
Ti14     V16    10.0   .     S
Ti14     Er24    10.0   .     S
Ti14     Er23    10.0   1_655     S
V15     Er17    10.0   .     S
V16     Er18    10.0   .     S
Er17     Ti19    10.0   .     S
Er17     Ti20    10.0   .     S
Er18     Ti20    10.0   .     S
Er18     Ti19    10.0   1_655     S
Ti19     V21    10.0   .     S
Ti19     Er18    10.0   1_455     S
Ti20     V22    10.0   .     S
V21     Er23    10.0   1_554     S
V21     Er5    10.0   1_545     S
V22     Er24    10.0   1_554     S
V22     Er6    10.0   1_545     S
Er23     V21    10.0   1_556     S
Er23     Ti14    10.0   1_455     S
Er23     V1    10.0   1_545     S
Er24     V22    10.0   1_556     S
Er24     V2    10.0   1_545     S
