data_hwx
_audit_creation_date              2019-12-31
_audit_creation_method            'Pymatgen'
_symmetry_space_group_name_H-M    'P1'
_symmetry_Int_Tables_number       1
loop_
_symmetry_equiv_pos_as_xyz
  x,y,z
_cell_length_a                    33.3374
_cell_length_b                    33.3374
_cell_length_c                    29.807
_cell_angle_alpha                 90.0
_cell_angle_beta                 90.0
_cell_angle_gamma                 90.0
loop_
_atom_site_label
_atom_site_type_symbol
_atom_site_fract_x
_atom_site_fract_y
_atom_site_fract_z
Er1     Er     0.5497   0.25   0.0
Er2     Er     0.5497   0.25   0.5
V3     V     0.7498   0.2502   0.25
V4     V     0.7498   0.2502   0.75
Er5     Er     0.7499   0.4502   0.0
Er6     Er     0.7499   0.4502   0.5
Er7     Er     0.75   0.9502   0.25
Er8     Er     0.75   0.9502   0.75
V9     V     0.7502   0.7502   0.0
V10     V     0.7502   0.7502   0.5
Er11     Er     0.9502   0.75   0.25
Er12     Er     0.9502   0.75   0.75
Er13     Er     0.25   0.0497   0.25
Er14     Er     0.25   0.0497   0.75
V15     V     0.2498   0.2498   0.0
V16     V     0.2498   0.2498   0.5
Er17     Er     0.0497   0.25   0.25
Er18     Er     0.0497   0.25   0.75
Er19     Er     0.25   0.5497   0.0
Er20     Er     0.25   0.5497   0.5
V21     V     0.2502   0.7498   0.25
V22     V     0.2502   0.7498   0.75
Er23     Er     0.4502   0.7499   0.0
Er24     Er     0.4502   0.7499   0.5
loop_
_geom_bond_atom_site_label_1
_geom_bond_atom_site_label_2
_geom_bond_distance
_geom_bond_site_symmetry_2
_ccdc_geom_bond_type
Er1     V15    10.0   .     S
Er1     V4    10.0   1_554     S
Er1     V3    10.0   .     S
Er2     V16    10.0   .     S
Er2     V3    10.0   .     S
Er2     V4    10.0   .     S
V3     Er6    10.0   .     S
V3     Er5    10.0   .     S
V3     Er7    10.0   1_545     S
V3     Er17    10.0   1_655     S
V4     Er5    10.0   1_556     S
V4     Er1    10.0   1_556     S
V4     Er6    10.0   .     S
V4     Er8    10.0   1_545     S
V4     Er18    10.0   1_655     S
Er5     V4    10.0   1_554     S
Er5     V9    10.0   .     S
Er6     V10    10.0   .     S
Er7     V3    10.0   1_565     S
Er7     V10    10.0   .     S
Er7     V9    10.0   .     S
Er8     V4    10.0   1_565     S
Er8     V9    10.0   1_556     S
Er8     V10    10.0   .     S
V9     Er8    10.0   1_554     S
V9     Er12    10.0   1_554     S
V9     Er11    10.0   .     S
V9     Er23    10.0   .     S
V10     Er11    10.0   .     S
V10     Er12    10.0   .     S
V10     Er24    10.0   .     S
Er11     V21    10.0   1_655     S
Er12     V9    10.0   1_556     S
Er12     V22    10.0   1_655     S
Er13     V21    10.0   1_545     S
Er13     V16    10.0   .     S
Er13     V15    10.0   .     S
Er14     V22    10.0   1_545     S
Er14     V15    10.0   1_556     S
Er14     V16    10.0   .     S
V15     Er14    10.0   1_554     S
V15     Er18    10.0   1_554     S
V15     Er17    10.0   .     S
V15     Er19    10.0   .     S
V16     Er17    10.0   .     S
V16     Er18    10.0   .     S
V16     Er20    10.0   .     S
Er17     V3    10.0   1_455     S
Er18     V15    10.0   1_556     S
Er18     V4    10.0   1_455     S
Er19     V21    10.0   .     S
Er19     V22    10.0   1_554     S
Er20     V22    10.0   .     S
Er20     V21    10.0   .     S
V21     Er11    10.0   1_455     S
V21     Er13    10.0   1_565     S
V21     Er23    10.0   .     S
V21     Er24    10.0   .     S
V22     Er12    10.0   1_455     S
V22     Er14    10.0   1_565     S
V22     Er24    10.0   .     S
V22     Er19    10.0   1_556     S
V22     Er23    10.0   1_556     S
Er23     V22    10.0   1_554     S
