data_usf
_audit_creation_date              2019-12-31
_audit_creation_method            'Pymatgen'
_symmetry_space_group_name_H-M    'P1'
_symmetry_Int_Tables_number       1
loop_
_symmetry_equiv_pos_as_xyz
  x,y,z
_cell_length_a                    32.6598
_cell_length_b                    32.6598
_cell_length_c                    40.0
_cell_angle_alpha                 90.0
_cell_angle_beta                 90.0
_cell_angle_gamma                 120.0
loop_
_atom_site_label
_atom_site_type_symbol
_atom_site_fract_x
_atom_site_fract_y
_atom_site_fract_z
V1     V     0.8333   0.6667   0.3333
V2     V     0.8333   0.6667   0.8333
V3     V     0.1667   0.8333   0.4167
V4     V     0.1667   0.8333   0.9167
V5     V     0.5   0.0   0.0
V6     V     0.5   0.0   0.5
V7     V     0.1667   0.3333   0.1667
V8     V     0.1667   0.3333   0.6667
V9     V     0.8333   0.1667   0.0833
V10     V     0.8333   0.1667   0.5833
V11     V     0.5   0.5   0.25
V12     V     0.5   0.5   0.75
V13     V     0.1667   0.3333   0.4167
V14     V     0.1667   0.3333   0.9167
V15     V     0.3333   0.1667   0.3333
V16     V     0.3333   0.1667   0.8333
V17     V     0.0   0.5   0.0
V18     V     0.0   0.5   0.5
V19     V     0.6667   0.8333   0.1667
V20     V     0.6667   0.8333   0.6667
V21     V     0.8333   0.6667   0.0833
V22     V     0.8333   0.6667   0.5833
V23     V     0.5   0.0   0.25
V24     V     0.5   0.0   0.75
V25     V     0.3333   0.1667   0.0833
V26     V     0.3333   0.1667   0.5833
V27     V     0.5   0.5   0.0
V28     V     0.5   0.5   0.5
V29     V     0.1667   0.8333   0.1667
V30     V     0.1667   0.8333   0.6667
V31     V     0.0   0.5   0.25
V32     V     0.0   0.5   0.75
V33     V     0.8333   0.1667   0.3333
V34     V     0.8333   0.1667   0.8333
V35     V     0.6667   0.8333   0.4167
V36     V     0.6667   0.8333   0.9167
loop_
_geom_bond_atom_site_label_1
_geom_bond_atom_site_label_2
_geom_bond_distance
_geom_bond_site_symmetry_2
_ccdc_geom_bond_type
V1     V3    10.0   1_655     S
V1     V11    10.0   .     S
V1     V21    10.0   .     S
V1     V22    10.0   .     S
V2     V4    10.0   1_655     S
V2     V12    10.0   .     S
V2     V22    10.0   .     S
V2     V21    10.0   1_556     S
V3     V6    10.0   1_565     S
V3     V1    10.0   1_455     S
V3     V30    10.0   .     S
V3     V29    10.0   .     S
V4     V5    10.0   1_566     S
V4     V2    10.0   1_455     S
V4     V29    10.0   1_556     S
V4     V30    10.0   .     S
V5     V9    10.0   .     S
V5     V4    10.0   1_544     S
V5     V23    10.0   .     S
V5     V24    10.0   1_554     S
V6     V10    10.0   .     S
V6     V3    10.0   1_545     S
V6     V24    10.0   .     S
V6     V23    10.0   .     S
V7     V11    10.0   .     S
V7     V9    10.0   1_455     S
V7     V14    10.0   1_554     S
V7     V13    10.0   .     S
V8     V12    10.0   .     S
V8     V10    10.0   1_455     S
V8     V13    10.0   .     S
V8     V14    10.0   .     S
V9     V7    10.0   1_655     S
V9     V33    10.0   .     S
V9     V34    10.0   1_554     S
V10     V8    10.0   1_655     S
V10     V34    10.0   .     S
V10     V33    10.0   .     S
V11     V27    10.0   .     S
V11     V28    10.0   .     S
V12     V28    10.0   .     S
V12     V27    10.0   1_556     S
V13     V15    10.0   .     S
V13     V18    10.0   .     S
V14     V16    10.0   .     S
V14     V17    10.0   1_556     S
V14     V7    10.0   1_556     S
V15     V23    10.0   .     S
V15     V25    10.0   .     S
V15     V26    10.0   .     S
V16     V24    10.0   .     S
V16     V26    10.0   .     S
V16     V25    10.0   1_556     S
V17     V14    10.0   1_554     S
V17     V21    10.0   1_455     S
V17     V31    10.0   .     S
V17     V32    10.0   1_554     S
V18     V22    10.0   1_455     S
V18     V32    10.0   .     S
V18     V31    10.0   .     S
V19     V23    10.0   1_565     S
V19     V21    10.0   .     S
V19     V36    10.0   1_554     S
V19     V35    10.0   .     S
V20     V24    10.0   1_565     S
V20     V22    10.0   .     S
V20     V35    10.0   .     S
V20     V36    10.0   .     S
V21     V17    10.0   1_655     S
V21     V2    10.0   1_554     S
V22     V18    10.0   1_655     S
V23     V19    10.0   1_545     S
V24     V20    10.0   1_545     S
V24     V5    10.0   1_556     S
V25     V27    10.0   .     S
V25     V29    10.0   1_545     S
V25     V16    10.0   1_554     S
V26     V28    10.0   .     S
V26     V30    10.0   1_545     S
V27     V36    10.0   1_554     S
V27     V12    10.0   1_554     S
V28     V35    10.0   .     S
V29     V31    10.0   .     S
V29     V25    10.0   1_565     S
V29     V4    10.0   1_554     S
V30     V32    10.0   .     S
V30     V26    10.0   1_565     S
V31     V33    10.0   1_455     S
V32     V34    10.0   1_455     S
V32     V17    10.0   1_556     S
V33     V31    10.0   1_655     S
V33     V35    10.0   1_545     S
V34     V32    10.0   1_655     S
V34     V36    10.0   1_545     S
V34     V9    10.0   1_556     S
V35     V33    10.0   1_565     S
V36     V27    10.0   1_556     S
V36     V34    10.0   1_565     S
V36     V19    10.0   1_556     S
